 Abaqus/Standard 2021                  DATE 08-Apr-2024 TIME 12:44:16
 SUMMARY OF JOB INFORMATION:
 STEP  INC ATT SEVERE EQUIL TOTAL  TOTAL      STEP       INC OF       DOF    IF
               DISCON ITERS ITERS  TIME/    TIME/LPF    TIME/LPF    MONITOR RIKS
               ITERS               FREQ
   1     1   1     0     2     2  0.000100   0.000100   0.0001000 
   1     2   1     0     1     1  0.000200   0.000200   0.0001000 
   1     3   1     0     1     1  0.000350   0.000350   0.0001500 
   1     4   1     0     1     1  0.000575   0.000575   0.0002250 
   1     5   1     0     1     1  0.000913   0.000913   0.0003375 
   1     6   1     0     1     1  0.00142    0.00142    0.0005062 
   1     7   1     0     1     1  0.00218    0.00218    0.0007594 
   1     8   1     0     1     1  0.00332    0.00332    0.001139  
   1     9   1     0     1     1  0.00503    0.00503    0.001709  
   1    10   1     0     1     1  0.00759    0.00759    0.002563  
   1    11   1     0     2     2  0.0114     0.0114     0.003844  
   1    12   1     0     2     2  0.0172     0.0172     0.005767  
   1    13   1     0     2     2  0.0258     0.0258     0.008650  
   1    14   1     0     2     2  0.0388     0.0388     0.01297   
   1    15   1     0     3     3  0.0583     0.0583     0.01946   
   1    16   1     0     3     3  0.0875     0.0875     0.02919   
   1    17   1     0     3     3  0.131      0.131      0.04379   
   1    18   1     0     3     3  0.197      0.197      0.06568   
   1    19   1     0     4     4  0.295      0.295      0.09853   
   1    20   1     0     4     4  0.395      0.395      0.1000    
   1    21   1     0     3     3  0.495      0.495      0.1000    
   1    22   1     0     3     3  0.595      0.595      0.1000    
   1    23   1     0     3     3  0.695      0.695      0.1000    
   1    24   1     0     3     3  0.795      0.795      0.1000    
   1    25   1     0     2     2  0.895      0.895      0.1000    
   1    26   1     0     2     2  0.995      0.995      0.1000    
   1    27   1     0     1     1  1.00       1.00       0.004522  
   2     1   1     0     3     3  1.00       1.00e-05   1.000e-05 
   2     2   1     0     5     5  1.00       2.00e-05   1.000e-05 
   2     3   1     0     2     2  1.00       3.00e-05   1.000e-05 
   2     4   1     0     1     1  1.00       4.00e-05   1.000e-05 
   2     5   1     0     1     1  1.00       5.50e-05   1.500e-05 
   2     6   1     0     1     1  1.00       7.75e-05   2.250e-05 
   2     7   1     0     1     1  1.00       0.000111   3.375e-05 
   2     8   1     0     1     1  1.00       0.000162   5.063e-05 
   2     9   1     0     1     1  1.00       0.000238   7.594e-05 
   2    10   1     0     1     1  1.00       0.000352   0.0001139 
   2    11   1     0     1     1  1.00       0.000523   0.0001709 
   2    12   1     0     1     1  1.00       0.000779   0.0002563 
   2    13   1     0     1     1  1.00       0.00116    0.0003844 
   2    14   1     0     1     1  1.00       0.00174    0.0005767 
   2    15   1     0     1     1  1.00       0.00260    0.0008650 
   2    16   1     0     1     1  1.00       0.00390    0.001297  
   2    17   1     0     1     1  1.01       0.00585    0.001946  
   2    18   1     0     1     1  1.01       0.00877    0.002919  
   2    19   1     0     1     1  1.01       0.0131     0.004379  
   2    20   1     0     1     1  1.02       0.0197     0.006568  
   2    21   1     0     1     1  1.03       0.0296     0.009853  
   2    22   1     0     1     1  1.04       0.0443     0.01478   
   2    23   1     0     1     1  1.07       0.0665     0.02217   
   2    24   1     0     1     1  1.10       0.0998     0.03325   
   2    25   1     0     1     1  1.15       0.150      0.04988   
   2    26   1     0     1     1  1.22       0.224      0.07482   
   2    27   1     0     1     1  1.32       0.324      0.1000    
   2    28   1     0     1     1  1.42       0.424      0.1000    
   2    29   1     0     1     1  1.52       0.524      0.1000    
   2    30   1     0     1     1  1.62       0.624      0.1000    
   2    31   1     0     1     1  1.72       0.724      0.1000    
   2    32   1     0     1     1  1.82       0.824      0.1000    
   2    33   1     0     1     1  1.92       0.924      0.1000    
   2    34   1     0     1     1  2.00       1.00       0.07554   
   3     1   1U    0     4     4  2.00       0.00       0.01000   
   3     1   2     0     4     4  2.00       0.00250    0.002500  
   3     2   1     0     2     2  2.01       0.00500    0.002500  
   3     3   1     0     2     2  2.01       0.00875    0.003750  
   3     4   1     0     4     4  2.01       0.0144     0.005625  
   3     5   1     0    10    10  2.02       0.0228     0.008438  
   3     6   1U    0     9     9  2.02       0.0228     0.008438  
   3     6   2     0     6     6  2.03       0.0270     0.004219  
   3     7   1     0     4     4  2.03       0.0313     0.004219  
   3     8   1U    0     5     5  2.03       0.0313     0.004219  
   3     8   2     0     2     2  2.03       0.0323     0.001055  
   3     9   1     0     4     4  2.03       0.0339     0.001582  
   3    10   1U    0     9     9  2.03       0.0339     0.002373  
   3    10   2     0     2     2  2.03       0.0345     0.0005933 
   3    11   1     0     2     2  2.04       0.0354     0.0008899 
   3    12   1U    0     9     9  2.04       0.0354     0.001335  
   3    12   2     0     2     2  2.04       0.0360     0.0006674 
   3    13   1     0     6     6  2.04       0.0370     0.001001  
   3    14   1     0     5     5  2.04       0.0380     0.001001  
   3    15   1     0     4     4  2.04       0.0390     0.001001  
   3    16   1     0     4     4  2.04       0.0400     0.001001  
   3    17   1     0     6     6  2.04       0.0415     0.001502  
   3    18   1     0     4     4  2.04       0.0430     0.001502  
   3    19   1     0     5     5  2.04       0.0445     0.001502  
   3    20   1     0     2     2  2.05       0.0460     0.001502  
   3    21   1     0     2     2  2.05       0.0476     0.001502  
   3    22   1     0     2     2  2.05       0.0498     0.002253  
   3    23   1     0     3     3  2.05       0.0532     0.003379  
   3    24   1     0     4     4  2.06       0.0582     0.005068  
   3    25   1     0     4     4  2.07       0.0659     0.007602  
   3    26   1     0     4     4  2.08       0.0773     0.01140   
   3    27   1     0     6     6  2.09       0.0944     0.01711   
   3    28   1     0     4     4  2.11       0.111      0.01711   
   3    29   1U    0     6     6  2.11       0.111      0.01711   
   3    29   2     0     3     3  2.12       0.116      0.004276  
   3    30   1     0     2     2  2.12       0.122      0.006414  
   3    31   1U    0     9     9  2.12       0.122      0.009622  
   3    31   2     0     2     2  2.13       0.127      0.004811  
   3    32   1     0     2     2  2.13       0.134      0.007216  
   3    33   1U    0     5     5  2.13       0.134      0.01082   
   3    33   2U    0     5     5  2.13       0.134      0.002706  
   3    33   3U    0     5     5  2.13       0.134      0.0006765 
   3    33   4U    0     5     5  2.13       0.134      0.0001691 
   3    33   5U    0     5     5  2.13       0.134      4.228e-05 
                          
 THE ANALYSIS HAS NOT BEEN COMPLETED
