1

   Abaqus 2021                                  Date 08-Apr-2024   Time 12:44:15
   For use by UNIVERSITY OF LIMERICK under license from Dassault Systemes or its subsidiary.

                                                                                 
                                                                                 
 STEP    1     INCREMENT     1     STEP TIME    0.00    


                        S T E P       1     S T A T I C   A N A L Y S I S


                                                                                          

     AUTOMATIC TIME CONTROL WITH -
          A SUGGESTED INITIAL TIME INCREMENT OF                1.000E-04
          AND A TOTAL TIME PERIOD OF                            1.00    
          THE MINIMUM TIME INCREMENT ALLOWED IS                1.000E-31
          THE MAXIMUM TIME INCREMENT ALLOWED IS                0.100    

     LINEAR EQUATION SOLVER TYPE         DIRECT SPARSE

     ADAPTIVE AUTOMATIC STABILIZATION WITH 
INITIAL DAMPING FACTOR =   2.000E-04

 CONVERGENCE TOLERANCE PARAMETERS FOR FORCE    
     CRITERION FOR RESIDUAL FORCE     FOR A NONLINEAR PROBLEM          5.000E-03
     CRITERION FOR DISP.    CORRECTION IN A NONLINEAR PROBLEM          1.000E-02
     INITIAL VALUE OF TIME AVERAGE FORCE                               1.000E-02
     AVERAGE FORCE     IS TIME AVERAGE FORCE    
     ALTERNATE CRIT. FOR RESIDUAL FORCE     FOR A NONLINEAR PROBLEM    2.000E-02
     CRITERION FOR ZERO FORCE     RELATIVE TO TIME AVRG. FORCE         1.000E-05
     CRITERION FOR RESIDUAL FORCE     WHEN THERE IS ZERO FLUX          1.000E-05
     CRITERION FOR DISP.    CORRECTION WHEN THERE IS ZERO FLUX         1.000E-03
     CRITERION FOR RESIDUAL FORCE     FOR A LINEAR INCREMENT           1.000E-08
     FIELD CONVERSION RATIO                                             1.00    
     CRITERION FOR ZERO FORCE     REL. TO TIME AVRG. MAX. FORCE        1.000E-05
     CRITERION FOR ZERO DISP.    RELATIVE TO CHARACTERISTIC LENGTH     1.000E-08

 CONVERGENCE TOLERANCE PARAMETERS FOR MOMENT   
     CRITERION FOR RESIDUAL MOMENT    FOR A NONLINEAR PROBLEM          5.000E-03
     CRITERION FOR ROTATION CORRECTION IN A NONLINEAR PROBLEM          1.000E-02
     INITIAL VALUE OF TIME AVERAGE MOMENT                              1.000E-02
     AVERAGE MOMENT    IS TIME AVERAGE MOMENT   
     ALTERNATE CRIT. FOR RESIDUAL MOMENT    FOR A NONLINEAR PROBLEM    2.000E-02
     CRITERION FOR ZERO MOMENT    RELATIVE TO TIME AVRG. MOMENT        1.000E-05
     CRITERION FOR RESIDUAL MOMENT    WHEN THERE IS ZERO FLUX          1.000E-05
     CRITERION FOR ROTATION CORRECTION WHEN THERE IS ZERO FLUX         1.000E-03
     CRITERION FOR RESIDUAL MOMENT    FOR A LINEAR INCREMENT           1.000E-08
     FIELD CONVERSION RATIO                                             1.00    
     CRITERION FOR ZERO MOMENT    REL. TO TIME AVRG. MAX. MOMENT       1.000E-05

     VOLUMETRIC STRAIN COMPATIBILITY TOLERANCE FOR HYBRID SOLIDS       1.000E-05
     AXIAL STRAIN COMPATIBILITY TOLERANCE FOR HYBRID BEAMS             1.000E-05
     TRANS. SHEAR STRAIN COMPATIBILITY TOLERANCE FOR HYBRID BEAMS      1.000E-05
     SOFT CONTACT CONSTRAINT COMPATIBILITY TOLERANCE FOR P>P0          5.000E-03
     SOFT CONTACT CONSTRAINT COMPATIBILITY TOLERANCE FOR P=0.0         0.100    
     CONTACT FORCE ERROR TOLERANCE FOR CONVERT SDI=YES                 1.00    
     DISPLACEMENT COMPATIBILITY TOLERANCE FOR DCOUP ELEMENTS           1.000E-05
     ROTATION COMPATIBILITY TOLERANCE FOR DCOUP ELEMENTS               1.000E-05

 EQUILIBRIUM WILL BE CHECKED FOR SEVERE DISCONTINUITY ITERATIONS

 TIME INCREMENTATION CONTROL PARAMETERS:
     FIRST EQUILIBRIUM ITERATION FOR CONSECUTIVE DIVERGENCE CHECK              4
     EQUILIBRIUM ITERATION AT WHICH LOG. CONVERGENCE RATE CHECK BEGINS         8
     EQUILIBRIUM ITERATION AFTER WHICH ALTERNATE RESIDUAL IS USED              9
     MAXIMUM EQUILIBRIUM ITERATIONS ALLOWED                                   16
     EQUILIBRIUM ITERATION COUNT FOR CUT-BACK IN NEXT INCREMENT               10
     MAXIMUM EQUILIB. ITERS IN TWO INCREMENTS FOR TIME INCREMENT INCREASE      4
     MAXIMUM ITERATIONS FOR SEVERE DISCONTINUITIES                            50
     MAXIMUM ATTEMPTS ALLOWED IN AN INCREMENT                                  5
     MAXIMUM DISCON. ITERS IN TWO INCREMENTS FOR TIME INCREMENT INCREASE      50
     MAXIMUM CONTACT AUGMENTATIONS FOR *SURFACE BEHAVIOR,AUGMENTED LAGRANGE   50
     CUT-BACK FACTOR AFTER DIVERGENCE                                 0.2500    
     CUT-BACK FACTOR FOR TOO SLOW CONVERGENCE                         0.5000    
     CUT-BACK FACTOR AFTER TOO MANY EQUILIBRIUM ITERATIONS            0.7500    
     CUT-BACK FACTOR AFTER TOO MANY SEVERE DISCONTINUITY ITERATIONS   0.2500    
     CUT-BACK FACTOR AFTER PROBLEMS IN ELEMENT ASSEMBLY               0.2500    
     INCREASE FACTOR AFTER TWO INCREMENTS THAT CONVERGE QUICKLY        1.500    
     MAX. TIME INCREMENT INCREASE FACTOR ALLOWED                       1.500    
     MAX. TIME INCREMENT INCREASE FACTOR ALLOWED (DYNAMICS)            1.250    
     MAX. TIME INCREMENT INCREASE FACTOR ALLOWED (DIFFUSION)           2.000    
     MINIMUM TIME INCREMENT RATIO FOR EXTRAPOLATION TO OCCUR          0.1000    
     MAX. RATIO OF TIME INCREMENT TO STABILITY LIMIT                   1.000    
     FRACTION OF STABILITY LIMIT FOR NEW TIME INCREMENT               0.9500    
     TIME INCREMENT INCREASE FACTOR BEFORE A TIME POINT                1.000    
     GLOBAL STABILIZATION CONTROL IS NOT USED

          PRINT OF INCREMENT NUMBER, TIME, ETC., EVERY    1  INCREMENTS

     THE MAXIMUM NUMBER OF INCREMENTS IN THIS STEP IS                    2000

          LARGE DISPLACEMENT THEORY WILL BE USED

     LINEAR EXTRAPOLATION WILL BE USED

     CHARACTERISTIC ELEMENT LENGTH     4.411E-03

     DETAILS REGARDING ACTUAL SOLUTION WAVEFRONT REQUESTED

     DETAILED OUTPUT OF DIAGNOSTICS TO DATABASE REQUESTED

     PRINT OF INCREMENT NUMBER, TIME, ETC., TO THE MESSAGE FILE EVERY     1  INCREMENTS

     ELEMENT OPERATIONS WILL BE CARRIED OUT IN PARALLEL USING   2 PROCESSORS

     PARALLEL CONTACT TRACKING ENABLED


     COLLECTING MODEL CONSTRAINT INFORMATION FOR OVERCONSTRAINT CHECKS

     COLLECTING STEP CONSTRAINT INFORMATION FOR OVERCONSTRAINT CHECKS

 ***WARNING: The local-3 direction (after additional rotation and permutation) 
             of the material orientation , specified via *ORIENTATION, is in 
             the plane of the SHELL, MEMBRANE, GASKET, COHESIVE, or SURFACE 
             element. The local-1 direction will be projected onto the element 
             surface and the positive element normal will be used as the 
             local-3 direction. The elements have been identified in element 
             set WarnElemUserNormMatOrient.


  INCREMENT     1 STARTS. ATTEMPT NUMBER  1, TIME INCREMENT  1.000E-04
 
     INITIAL ELEMENT LOAD BALANCE
            PROCESS    1   THREAD     NUMBER OF ELEMENTS
                              1            2376
                              2            2304

  NUMBER OF EQUATIONS =     29640     NUMBER OF RHS =    1
  NUMBER OF FLOATING PT. OPERATIONS =  7.47E+08

  USING THE DIRECT SOLVER WITH   2 PROCESSORS

     CHECK POINT   START OF SOLVER    

     CHECK POINT  END OF SOLVER       

       ELAPSED USER TIME (SEC)      =  0.20000    
       ELAPSED SYSTEM TIME (SEC)    =   0.0000    
       ELAPSED TOTAL CPU TIME (SEC) =  0.20000    
       ELAPSED WALLCLOCK TIME (SEC) =          0

               CONVERGENCE CHECKS FOR EQUILIBRIUM ITERATION     1


 AVERAGE FORCE                      1.062E-04   TIME AVG. FORCE       1.062E-04
 LARGEST RESIDUAL FORCE             2.706E-04   AT NODE         37   DOF  1
   INSTANCE: PART-622-1                                                                      
 LARGEST INCREMENT OF DISP.         1.788E-06   AT NODE        407   DOF  3
   INSTANCE: PART-622-1                                                                      
 LARGEST CORRECTION TO DISP.        1.788E-06   AT NODE        407   DOF  3
   INSTANCE: PART-622-1                                                                      
          FORCE     EQUILIBRIUM NOT ACHIEVED WITHIN TOLERANCE.

 AVERAGE MOMENT                     3.823E-07   TIME AVG. MOMENT      3.823E-07
 LARGEST RESIDUAL MOMENT            5.657E-08   AT NODE         37   DOF  5
   INSTANCE: PART-622-1                                                                      
 LARGEST INCREMENT OF ROTATION     -6.742E-05   AT NODE          3   DOF  5
   INSTANCE: PART-622-1                                                                      
 LARGEST CORRECTION TO ROTATION    -6.742E-05   AT NODE          3   DOF  5
   INSTANCE: PART-622-1                                                                      
          MOMENT    EQUILIBRIUM NOT ACHIEVED WITHIN TOLERANCE.

  NUMBER OF EQUATIONS =     29640     NUMBER OF RHS =    1
  NUMBER OF FLOATING PT. OPERATIONS =  7.47E+08

  USING THE DIRECT SOLVER WITH   2 PROCESSORS

     CHECK POINT   START OF SOLVER    

     CHECK POINT  END OF SOLVER       

       ELAPSED USER TIME (SEC)      =  0.20000    
       ELAPSED SYSTEM TIME (SEC)    =   0.0000    
       ELAPSED TOTAL CPU TIME (SEC) =  0.20000    
       ELAPSED WALLCLOCK TIME (SEC) =          0

               CONVERGENCE CHECKS FOR EQUILIBRIUM ITERATION     2


 AVERAGE FORCE                      1.048E-04   TIME AVG. FORCE       1.048E-04
 LARGEST RESIDUAL FORCE            -4.059E-08   AT NODE       1196   DOF  3
   INSTANCE: PART-622-1                                                                      
 LARGEST INCREMENT OF DISP.         1.788E-06   AT NODE        407   DOF  3
   INSTANCE: PART-622-1                                                                      
 LARGEST CORRECTION TO DISP.       -5.629E-11   AT NODE        405   DOF  3
   INSTANCE: PART-622-1                                                                      
          THE FORCE     EQUILIBRIUM EQUATIONS HAVE CONVERGED

 AVERAGE MOMENT                     3.825E-07   TIME AVG. MOMENT      3.825E-07
 LARGEST RESIDUAL MOMENT            6.609E-13   AT NODE       4247   DOF  6
   INSTANCE: PART-622-1                                                                      
 LARGEST INCREMENT OF ROTATION     -6.742E-05   AT NODE          3   DOF  5
   INSTANCE: PART-622-1                                                                      
 LARGEST CORRECTION TO ROTATION    -7.037E-09   AT NODE         19   DOF  5
   INSTANCE: PART-622-1                                                                      
          THE MOMENT    EQUILIBRIUM EQUATIONS HAVE CONVERGED

 ITERATION SUMMARY FOR THE INCREMENT:   2 TOTAL ITERATIONS, OF WHICH
   0 ARE SEVERE DISCONTINUITY ITERATIONS AND  2 ARE EQUILIBRIUM ITERATIONS.

 TIME INCREMENT COMPLETED  1.000E-04,  FRACTION OF STEP COMPLETED  1.000E-04
 STEP TIME COMPLETED       1.000E-04,  TOTAL TIME COMPLETED        1.000E-04


  INCREMENT     2 STARTS. ATTEMPT NUMBER  1, TIME INCREMENT  1.000E-04

  NUMBER OF EQUATIONS =     29640     NUMBER OF RHS =    1
  NUMBER OF FLOATING PT. OPERATIONS =  7.47E+08

  USING THE DIRECT SOLVER WITH   2 PROCESSORS

     CHECK POINT   START OF SOLVER    

     CHECK POINT  END OF SOLVER       

       ELAPSED USER TIME (SEC)      =  0.10000    
       ELAPSED SYSTEM TIME (SEC)    =   0.0000    
       ELAPSED TOTAL CPU TIME (SEC) =  0.10000    
       ELAPSED WALLCLOCK TIME (SEC) =          1

               CONVERGENCE CHECKS FOR EQUILIBRIUM ITERATION     1


 AVERAGE FORCE                      2.100E-04   TIME AVG. FORCE       1.574E-04
 LARGEST RESIDUAL FORCE            -4.207E-08   AT NODE       1124   DOF  3
   INSTANCE: PART-622-1                                                                      
 LARGEST INCREMENT OF DISP.         1.788E-06   AT NODE        407   DOF  3
   INSTANCE: PART-622-1                                                                      
 LARGEST CORRECTION TO DISP.       -1.151E-10   AT NODE        405   DOF  3
   INSTANCE: PART-622-1                                                                      
          THE FORCE     EQUILIBRIUM EQUATIONS HAVE CONVERGED

 AVERAGE MOMENT                     7.688E-07   TIME AVG. MOMENT      5.757E-07
 LARGEST RESIDUAL MOMENT           -7.189E-13   AT NODE       4575   DOF  6
   INSTANCE: PART-622-1                                                                      
 LARGEST INCREMENT OF ROTATION     -6.742E-05   AT NODE          3   DOF  5
   INSTANCE: PART-622-1                                                                      
 LARGEST CORRECTION TO ROTATION     1.406E-08   AT NODE         81   DOF  5
   INSTANCE: PART-622-1                                                                      
          THE MOMENT    EQUILIBRIUM EQUATIONS HAVE CONVERGED
          TIME INCREMENT MAY NOW INCREASE TO    1.500E-04

 ITERATION SUMMARY FOR THE INCREMENT:   1 TOTAL ITERATIONS, OF WHICH
   0 ARE SEVERE DISCONTINUITY ITERATIONS AND  1 ARE EQUILIBRIUM ITERATIONS.

 TIME INCREMENT COMPLETED  1.000E-04,  FRACTION OF STEP COMPLETED  2.000E-04
 STEP TIME COMPLETED       2.000E-04,  TOTAL TIME COMPLETED        2.000E-04


  INCREMENT     3 STARTS. ATTEMPT NUMBER  1, TIME INCREMENT  1.500E-04

  NUMBER OF EQUATIONS =     29640     NUMBER OF RHS =    1
  NUMBER OF FLOATING PT. OPERATIONS =  7.47E+08

  USING THE DIRECT SOLVER WITH   2 PROCESSORS

     CHECK POINT   START OF SOLVER    

     CHECK POINT  END OF SOLVER       

       ELAPSED USER TIME (SEC)      =  0.20000    
       ELAPSED SYSTEM TIME (SEC)    =   0.0000    
       ELAPSED TOTAL CPU TIME (SEC) =  0.20000    
       ELAPSED WALLCLOCK TIME (SEC) =          0

               CONVERGENCE CHECKS FOR EQUILIBRIUM ITERATION     1


 AVERAGE FORCE                      3.680E-04   TIME AVG. FORCE       2.276E-04
 LARGEST RESIDUAL FORCE            -5.524E-08   AT NODE       1194   DOF  3
   INSTANCE: PART-622-1                                                                      
 LARGEST INCREMENT OF DISP.         2.682E-06   AT NODE        407   DOF  3
   INSTANCE: PART-622-1                                                                      
 LARGEST CORRECTION TO DISP.       -2.300E-10   AT NODE        405   DOF  3
   INSTANCE: PART-622-1                                                                      
          THE FORCE     EQUILIBRIUM EQUATIONS HAVE CONVERGED

 AVERAGE MOMENT                     1.344E-06   TIME AVG. MOMENT      8.318E-07
 LARGEST RESIDUAL MOMENT           -6.686E-13   AT NODE       4771   DOF  6
   INSTANCE: PART-622-1                                                                      
 LARGEST INCREMENT OF ROTATION     -1.011E-04   AT NODE          3   DOF  5
   INSTANCE: PART-622-1                                                                      
 LARGEST CORRECTION TO ROTATION    -2.628E-08   AT NODE         19   DOF  5
   INSTANCE: PART-622-1                                                                      
          THE MOMENT    EQUILIBRIUM EQUATIONS HAVE CONVERGED
          TIME INCREMENT MAY NOW INCREASE TO    2.250E-04

 ITERATION SUMMARY FOR THE INCREMENT:   1 TOTAL ITERATIONS, OF WHICH
   0 ARE SEVERE DISCONTINUITY ITERATIONS AND  1 ARE EQUILIBRIUM ITERATIONS.

 TIME INCREMENT COMPLETED  1.500E-04,  FRACTION OF STEP COMPLETED  3.500E-04
 STEP TIME COMPLETED       3.500E-04,  TOTAL TIME COMPLETED        3.500E-04


  INCREMENT     4 STARTS. ATTEMPT NUMBER  1, TIME INCREMENT  2.250E-04

  NUMBER OF EQUATIONS =     29640     NUMBER OF RHS =    1
  NUMBER OF FLOATING PT. OPERATIONS =  7.47E+08

  USING THE DIRECT SOLVER WITH   2 PROCESSORS

     CHECK POINT   START OF SOLVER    

     CHECK POINT  END OF SOLVER       

       ELAPSED USER TIME (SEC)      =  0.10000    
       ELAPSED SYSTEM TIME (SEC)    =   0.0000    
       ELAPSED TOTAL CPU TIME (SEC) =  0.10000    
       ELAPSED WALLCLOCK TIME (SEC) =          0

               CONVERGENCE CHECKS FOR EQUILIBRIUM ITERATION     1


 AVERAGE FORCE                      6.061E-04   TIME AVG. FORCE       3.222E-04
 LARGEST RESIDUAL FORCE            -4.381E-08   AT NODE       1060   DOF  3
   INSTANCE: PART-622-1                                                                      
 LARGEST INCREMENT OF DISP.         4.023E-06   AT NODE        407   DOF  3
   INSTANCE: PART-622-1                                                                      
 LARGEST CORRECTION TO DISP.       -5.618E-10   AT NODE        405   DOF  3
   INSTANCE: PART-622-1                                                                      
          THE FORCE     EQUILIBRIUM EQUATIONS HAVE CONVERGED

 AVERAGE MOMENT                     2.207E-06   TIME AVG. MOMENT      1.176E-06
 LARGEST RESIDUAL MOMENT           -6.075E-13   AT NODE       4384   DOF  6
   INSTANCE: PART-622-1                                                                      
 LARGEST INCREMENT OF ROTATION     -1.517E-04   AT NODE          3   DOF  5
   INSTANCE: PART-622-1                                                                      
 LARGEST CORRECTION TO ROTATION     5.888E-08   AT NODE         81   DOF  5
   INSTANCE: PART-622-1                                                                      
          THE MOMENT    EQUILIBRIUM EQUATIONS HAVE CONVERGED
          TIME INCREMENT MAY NOW INCREASE TO    3.375E-04

 ITERATION SUMMARY FOR THE INCREMENT:   1 TOTAL ITERATIONS, OF WHICH
   0 ARE SEVERE DISCONTINUITY ITERATIONS AND  1 ARE EQUILIBRIUM ITERATIONS.

 TIME INCREMENT COMPLETED  2.250E-04,  FRACTION OF STEP COMPLETED  5.750E-04
 STEP TIME COMPLETED       5.750E-04,  TOTAL TIME COMPLETED        5.750E-04


  INCREMENT     5 STARTS. ATTEMPT NUMBER  1, TIME INCREMENT  3.375E-04

  NUMBER OF EQUATIONS =     29640     NUMBER OF RHS =    1
  NUMBER OF FLOATING PT. OPERATIONS =  7.47E+08

  USING THE DIRECT SOLVER WITH   2 PROCESSORS

     CHECK POINT   START OF SOLVER    

     CHECK POINT  END OF SOLVER       

       ELAPSED USER TIME (SEC)      =  0.20000    
       ELAPSED SYSTEM TIME (SEC)    =   0.0000    
       ELAPSED TOTAL CPU TIME (SEC) =  0.20000    
       ELAPSED WALLCLOCK TIME (SEC) =          0

               CONVERGENCE CHECKS FOR EQUILIBRIUM ITERATION     1


 AVERAGE FORCE                      9.656E-04   TIME AVG. FORCE       4.509E-04
 LARGEST RESIDUAL FORCE             3.981E-08   AT NODE        964   DOF  3
   INSTANCE: PART-622-1                                                                      
 LARGEST INCREMENT OF DISP.         6.032E-06   AT NODE        407   DOF  3
   INSTANCE: PART-622-1                                                                      
 LARGEST CORRECTION TO DISP.       -1.413E-09   AT NODE        405   DOF  3
   INSTANCE: PART-622-1                                                                      
          THE FORCE     EQUILIBRIUM EQUATIONS HAVE CONVERGED

 AVERAGE MOMENT                     3.501E-06   TIME AVG. MOMENT      1.641E-06
 LARGEST RESIDUAL MOMENT            8.276E-13   AT NODE          3   DOF  5
   INSTANCE: PART-622-1                                                                      
 LARGEST INCREMENT OF ROTATION     -2.275E-04   AT NODE          3   DOF  5
   INSTANCE: PART-622-1                                                                      
 LARGEST CORRECTION TO ROTATION    -1.316E-07   AT NODE         19   DOF  5
   INSTANCE: PART-622-1                                                                      
          THE MOMENT    EQUILIBRIUM EQUATIONS HAVE CONVERGED
          TIME INCREMENT MAY NOW INCREASE TO    5.062E-04

 ITERATION SUMMARY FOR THE INCREMENT:   1 TOTAL ITERATIONS, OF WHICH
   0 ARE SEVERE DISCONTINUITY ITERATIONS AND  1 ARE EQUILIBRIUM ITERATIONS.

 TIME INCREMENT COMPLETED  3.375E-04,  FRACTION OF STEP COMPLETED  9.125E-04
 STEP TIME COMPLETED       9.125E-04,  TOTAL TIME COMPLETED        9.125E-04


  INCREMENT     6 STARTS. ATTEMPT NUMBER  1, TIME INCREMENT  5.062E-04

  NUMBER OF EQUATIONS =     29640     NUMBER OF RHS =    1
  NUMBER OF FLOATING PT. OPERATIONS =  7.47E+08

  USING THE DIRECT SOLVER WITH   2 PROCESSORS

     CHECK POINT   START OF SOLVER    

     CHECK POINT  END OF SOLVER       

       ELAPSED USER TIME (SEC)      =  0.20000    
       ELAPSED SYSTEM TIME (SEC)    =   0.0000    
       ELAPSED TOTAL CPU TIME (SEC) =  0.20000    
       ELAPSED WALLCLOCK TIME (SEC) =          0

               CONVERGENCE CHECKS FOR EQUILIBRIUM ITERATION     1


 AVERAGE FORCE                      1.511E-03   TIME AVG. FORCE       6.275E-04
 LARGEST RESIDUAL FORCE            -4.184E-08   AT NODE       1064   DOF  3
   INSTANCE: PART-622-1                                                                      
 LARGEST INCREMENT OF DISP.         9.045E-06   AT NODE        407   DOF  3
   INSTANCE: PART-622-1                                                                      
 LARGEST CORRECTION TO DISP.       -3.684E-09   AT NODE        405   DOF  3
   INSTANCE: PART-622-1                                                                      
          THE FORCE     EQUILIBRIUM EQUATIONS HAVE CONVERGED

 AVERAGE MOMENT                     5.439E-06   TIME AVG. MOMENT      2.274E-06
 LARGEST RESIDUAL MOMENT            2.969E-12   AT NODE         37   DOF  5
   INSTANCE: PART-622-1                                                                      
 LARGEST INCREMENT OF ROTATION     -3.412E-04   AT NODE          3   DOF  5
   INSTANCE: PART-622-1                                                                      
 LARGEST CORRECTION TO ROTATION     2.933E-07   AT NODE         81   DOF  5
   INSTANCE: PART-622-1                                                                      
          THE MOMENT    EQUILIBRIUM EQUATIONS HAVE CONVERGED
          TIME INCREMENT MAY NOW INCREASE TO    7.594E-04

 ITERATION SUMMARY FOR THE INCREMENT:   1 TOTAL ITERATIONS, OF WHICH
   0 ARE SEVERE DISCONTINUITY ITERATIONS AND  1 ARE EQUILIBRIUM ITERATIONS.

 TIME INCREMENT COMPLETED  5.062E-04,  FRACTION OF STEP COMPLETED  1.419E-03
 STEP TIME COMPLETED       1.419E-03,  TOTAL TIME COMPLETED        1.419E-03


  INCREMENT     7 STARTS. ATTEMPT NUMBER  1, TIME INCREMENT  7.594E-04

  NUMBER OF EQUATIONS =     29640     NUMBER OF RHS =    1
  NUMBER OF FLOATING PT. OPERATIONS =  7.47E+08

  USING THE DIRECT SOLVER WITH   2 PROCESSORS

     CHECK POINT   START OF SOLVER    

     CHECK POINT  END OF SOLVER       

       ELAPSED USER TIME (SEC)      =  0.20000    
       ELAPSED SYSTEM TIME (SEC)    =   0.0000    
       ELAPSED TOTAL CPU TIME (SEC) =  0.20000    
       ELAPSED WALLCLOCK TIME (SEC) =          0

               CONVERGENCE CHECKS FOR EQUILIBRIUM ITERATION     1


 AVERAGE FORCE                      2.342E-03   TIME AVG. FORCE       8.725E-04
 LARGEST RESIDUAL FORCE             4.623E-08   AT NODE         63   DOF  1
   INSTANCE: PART-622-1                                                                      
 LARGEST INCREMENT OF DISP.         1.356E-05   AT NODE        407   DOF  3
   INSTANCE: PART-622-1                                                                      
 LARGEST CORRECTION TO DISP.       -9.985E-09   AT NODE        405   DOF  3
   INSTANCE: PART-622-1                                                                      
          THE FORCE     EQUILIBRIUM EQUATIONS HAVE CONVERGED

 AVERAGE MOMENT                     8.347E-06   TIME AVG. MOMENT      3.141E-06
 LARGEST RESIDUAL MOMENT           -9.991E-12   AT NODE         63   DOF  5
   INSTANCE: PART-622-1                                                                      
 LARGEST INCREMENT OF ROTATION     -5.117E-04   AT NODE          3   DOF  5
   INSTANCE: PART-622-1                                                                      
 LARGEST CORRECTION TO ROTATION     6.502E-07   AT NODE         81   DOF  5
   INSTANCE: PART-622-1                                                                      
          THE MOMENT    EQUILIBRIUM EQUATIONS HAVE CONVERGED
          TIME INCREMENT MAY NOW INCREASE TO    1.139E-03

 ITERATION SUMMARY FOR THE INCREMENT:   1 TOTAL ITERATIONS, OF WHICH
   0 ARE SEVERE DISCONTINUITY ITERATIONS AND  1 ARE EQUILIBRIUM ITERATIONS.

 TIME INCREMENT COMPLETED  7.594E-04,  FRACTION OF STEP COMPLETED  2.178E-03
 STEP TIME COMPLETED       2.178E-03,  TOTAL TIME COMPLETED        2.178E-03


  INCREMENT     8 STARTS. ATTEMPT NUMBER  1, TIME INCREMENT  1.139E-03

  NUMBER OF EQUATIONS =     29640     NUMBER OF RHS =    1
  NUMBER OF FLOATING PT. OPERATIONS =  7.47E+08

  USING THE DIRECT SOLVER WITH   2 PROCESSORS

     CHECK POINT   START OF SOLVER    

     CHECK POINT  END OF SOLVER       

       ELAPSED USER TIME (SEC)      =  0.20000    
       ELAPSED SYSTEM TIME (SEC)    =   0.0000    
       ELAPSED TOTAL CPU TIME (SEC) =  0.20000    
       ELAPSED WALLCLOCK TIME (SEC) =          0

               CONVERGENCE CHECKS FOR EQUILIBRIUM ITERATION     1


 AVERAGE FORCE                      3.623E-03   TIME AVG. FORCE       1.216E-03
 LARGEST RESIDUAL FORCE             1.757E-07   AT NODE         63   DOF  1
   INSTANCE: PART-622-1                                                                      
 LARGEST INCREMENT OF DISP.         2.031E-05   AT NODE        407   DOF  3
   INSTANCE: PART-622-1                                                                      
 LARGEST CORRECTION TO DISP.       -2.816E-08   AT NODE        405   DOF  3
   INSTANCE: PART-622-1                                                                      
          THE FORCE     EQUILIBRIUM EQUATIONS HAVE CONVERGED

 AVERAGE MOMENT                     1.270E-05   TIME AVG. MOMENT      4.337E-06
 LARGEST RESIDUAL MOMENT           -3.729E-11   AT NODE         63   DOF  5
   INSTANCE: PART-622-1                                                                      
 LARGEST INCREMENT OF ROTATION     -7.672E-04   AT NODE          3   DOF  5
   INSTANCE: PART-622-1                                                                      
 LARGEST CORRECTION TO ROTATION     1.429E-06   AT NODE         81   DOF  5
   INSTANCE: PART-622-1                                                                      
          THE MOMENT    EQUILIBRIUM EQUATIONS HAVE CONVERGED
          TIME INCREMENT MAY NOW INCREASE TO    1.709E-03

 ITERATION SUMMARY FOR THE INCREMENT:   1 TOTAL ITERATIONS, OF WHICH
   0 ARE SEVERE DISCONTINUITY ITERATIONS AND  1 ARE EQUILIBRIUM ITERATIONS.

 TIME INCREMENT COMPLETED  1.139E-03,  FRACTION OF STEP COMPLETED  3.317E-03
 STEP TIME COMPLETED       3.317E-03,  TOTAL TIME COMPLETED        3.317E-03


  INCREMENT     9 STARTS. ATTEMPT NUMBER  1, TIME INCREMENT  1.709E-03

  NUMBER OF EQUATIONS =     29640     NUMBER OF RHS =    1
  NUMBER OF FLOATING PT. OPERATIONS =  7.47E+08

  USING THE DIRECT SOLVER WITH   2 PROCESSORS

     CHECK POINT   START OF SOLVER    

     CHECK POINT  END OF SOLVER       

       ELAPSED USER TIME (SEC)      =  0.10000    
       ELAPSED SYSTEM TIME (SEC)    =   0.0000    
       ELAPSED TOTAL CPU TIME (SEC) =  0.10000    
       ELAPSED WALLCLOCK TIME (SEC) =          0

               CONVERGENCE CHECKS FOR EQUILIBRIUM ITERATION     1


 AVERAGE FORCE                      5.626E-03   TIME AVG. FORCE       1.706E-03
 LARGEST RESIDUAL FORCE             7.795E-07   AT NODE         63   DOF  1
   INSTANCE: PART-622-1                                                                      
 LARGEST INCREMENT OF DISP.         3.038E-05   AT NODE        407   DOF  3
   INSTANCE: PART-622-1                                                                      
 LARGEST CORRECTION TO DISP.       -8.236E-08   AT NODE        405   DOF  3
   INSTANCE: PART-622-1                                                                      
          THE FORCE     EQUILIBRIUM EQUATIONS HAVE CONVERGED

 AVERAGE MOMENT                     1.923E-05   TIME AVG. MOMENT      5.991E-06
 LARGEST RESIDUAL MOMENT            1.594E-10   AT NODE         37   DOF  5
   INSTANCE: PART-622-1                                                                      
 LARGEST INCREMENT OF ROTATION     -1.149E-03   AT NODE          3   DOF  5
   INSTANCE: PART-622-1                                                                      
 LARGEST CORRECTION TO ROTATION     3.097E-06   AT NODE         81   DOF  5
   INSTANCE: PART-622-1                                                                      
          THE MOMENT    EQUILIBRIUM EQUATIONS HAVE CONVERGED
          TIME INCREMENT MAY NOW INCREASE TO    2.563E-03

 ITERATION SUMMARY FOR THE INCREMENT:   1 TOTAL ITERATIONS, OF WHICH
   0 ARE SEVERE DISCONTINUITY ITERATIONS AND  1 ARE EQUILIBRIUM ITERATIONS.

 TIME INCREMENT COMPLETED  1.709E-03,  FRACTION OF STEP COMPLETED  5.026E-03
 STEP TIME COMPLETED       5.026E-03,  TOTAL TIME COMPLETED        5.026E-03


  INCREMENT    10 STARTS. ATTEMPT NUMBER  1, TIME INCREMENT  2.563E-03

  NUMBER OF EQUATIONS =     29640     NUMBER OF RHS =    1
  NUMBER OF FLOATING PT. OPERATIONS =  7.47E+08

  USING THE DIRECT SOLVER WITH   2 PROCESSORS

     CHECK POINT   START OF SOLVER    

     CHECK POINT  END OF SOLVER       

       ELAPSED USER TIME (SEC)      =  0.20000    
       ELAPSED SYSTEM TIME (SEC)    =   0.0000    
       ELAPSED TOTAL CPU TIME (SEC) =  0.20000    
       ELAPSED WALLCLOCK TIME (SEC) =          0

               CONVERGENCE CHECKS FOR EQUILIBRIUM ITERATION     1


 AVERAGE FORCE                      8.836E-03   TIME AVG. FORCE       2.419E-03
 LARGEST RESIDUAL FORCE             4.357E-06   AT NODE         37   DOF  1
   INSTANCE: PART-622-1                                                                      
 LARGEST INCREMENT OF DISP.         4.534E-05   AT NODE        407   DOF  3
   INSTANCE: PART-622-1                                                                      
 LARGEST CORRECTION TO DISP.       -2.479E-07   AT NODE        404   DOF  3
   INSTANCE: PART-622-1                                                                      
          THE FORCE     EQUILIBRIUM EQUATIONS HAVE CONVERGED

 AVERAGE MOMENT                     2.900E-05   TIME AVG. MOMENT      8.292E-06
 LARGEST RESIDUAL MOMENT           -8.447E-10   AT NODE         63   DOF  5
   INSTANCE: PART-622-1                                                                      
 LARGEST INCREMENT OF ROTATION     -1.720E-03   AT NODE          3   DOF  5
   INSTANCE: PART-622-1                                                                      
 LARGEST CORRECTION TO ROTATION     6.553E-06   AT NODE         81   DOF  5
   INSTANCE: PART-622-1                                                                      
          THE MOMENT    EQUILIBRIUM EQUATIONS HAVE CONVERGED
          TIME INCREMENT MAY NOW INCREASE TO    3.844E-03

 ITERATION SUMMARY FOR THE INCREMENT:   1 TOTAL ITERATIONS, OF WHICH
   0 ARE SEVERE DISCONTINUITY ITERATIONS AND  1 ARE EQUILIBRIUM ITERATIONS.

 TIME INCREMENT COMPLETED  2.563E-03,  FRACTION OF STEP COMPLETED  7.589E-03
 STEP TIME COMPLETED       7.589E-03,  TOTAL TIME COMPLETED        7.589E-03


  INCREMENT    11 STARTS. ATTEMPT NUMBER  1, TIME INCREMENT  3.844E-03

  NUMBER OF EQUATIONS =     29640     NUMBER OF RHS =    1
  NUMBER OF FLOATING PT. OPERATIONS =  7.47E+08

  USING THE DIRECT SOLVER WITH   2 PROCESSORS

     CHECK POINT   START OF SOLVER    

     CHECK POINT  END OF SOLVER       

       ELAPSED USER TIME (SEC)      =  0.20000    
       ELAPSED SYSTEM TIME (SEC)    =   0.0000    
       ELAPSED TOTAL CPU TIME (SEC) =  0.20000    
       ELAPSED WALLCLOCK TIME (SEC) =          0

               CONVERGENCE CHECKS FOR EQUILIBRIUM ITERATION     1


 AVERAGE FORCE                      1.416E-02   TIME AVG. FORCE       3.487E-03
 LARGEST RESIDUAL FORCE             3.058E-05   AT NODE         63   DOF  1
   INSTANCE: PART-622-1                                                                      
 LARGEST INCREMENT OF DISP.         6.727E-05   AT NODE        407   DOF  3
   INSTANCE: PART-622-1                                                                      
 LARGEST CORRECTION TO DISP.       -7.580E-07   AT NODE        404   DOF  3
   INSTANCE: PART-622-1                                                                      
          FORCE     EQUILIBRIUM NOT ACHIEVED WITHIN TOLERANCE.

 AVERAGE MOMENT                     4.357E-05   TIME AVG. MOMENT      1.150E-05
 LARGEST RESIDUAL MOMENT            5.681E-09   AT NODE         37   DOF  5
   INSTANCE: PART-622-1                                                                      
 LARGEST INCREMENT OF ROTATION     -2.568E-03   AT NODE          3   DOF  5
   INSTANCE: PART-622-1                                                                      
 LARGEST CORRECTION TO ROTATION     1.810E-05   AT NODE        416   DOF  5
   INSTANCE: PART-622-1                                                                      
          THE MOMENT    EQUILIBRIUM EQUATIONS HAVE CONVERGED

  NUMBER OF EQUATIONS =     29640     NUMBER OF RHS =    1
  NUMBER OF FLOATING PT. OPERATIONS =  7.47E+08

  USING THE DIRECT SOLVER WITH   2 PROCESSORS

     CHECK POINT   START OF SOLVER    

     CHECK POINT  END OF SOLVER       

       ELAPSED USER TIME (SEC)      =  0.20000    
       ELAPSED SYSTEM TIME (SEC)    =   0.0000    
       ELAPSED TOTAL CPU TIME (SEC) =  0.20000    
       ELAPSED WALLCLOCK TIME (SEC) =          0

               CONVERGENCE CHECKS FOR EQUILIBRIUM ITERATION     2


 AVERAGE FORCE                      1.416E-02   TIME AVG. FORCE       3.487E-03
 LARGEST RESIDUAL FORCE             4.347E-08   AT NODE       1121   DOF  3
   INSTANCE: PART-622-1                                                                      
 LARGEST INCREMENT OF DISP.         6.727E-05   AT NODE        407   DOF  3
   INSTANCE: PART-622-1                                                                      
 LARGEST CORRECTION TO DISP.        3.595E-09   AT NODE        406   DOF  3
   INSTANCE: PART-622-1                                                                      
          THE FORCE     EQUILIBRIUM EQUATIONS HAVE CONVERGED

 AVERAGE MOMENT                     4.357E-05   TIME AVG. MOMENT      1.150E-05
 LARGEST RESIDUAL MOMENT           -2.320E-12   AT NODE        724   DOF  5
   INSTANCE: PART-622-1                                                                      
 LARGEST INCREMENT OF ROTATION     -2.568E-03   AT NODE          3   DOF  5
   INSTANCE: PART-622-1                                                                      
 LARGEST CORRECTION TO ROTATION     9.418E-08   AT NODE        404   DOF  4
   INSTANCE: PART-622-1                                                                      
          THE MOMENT    EQUILIBRIUM EQUATIONS HAVE CONVERGED
          TIME INCREMENT MAY NOW INCREASE TO    5.767E-03

 ITERATION SUMMARY FOR THE INCREMENT:   2 TOTAL ITERATIONS, OF WHICH
   0 ARE SEVERE DISCONTINUITY ITERATIONS AND  2 ARE EQUILIBRIUM ITERATIONS.

 TIME INCREMENT COMPLETED  3.844E-03,  FRACTION OF STEP COMPLETED  1.143E-02
 STEP TIME COMPLETED       1.143E-02,  TOTAL TIME COMPLETED        1.143E-02


  INCREMENT    12 STARTS. ATTEMPT NUMBER  1, TIME INCREMENT  5.767E-03

  NUMBER OF EQUATIONS =     29640     NUMBER OF RHS =    1
  NUMBER OF FLOATING PT. OPERATIONS =  7.47E+08

  USING THE DIRECT SOLVER WITH   2 PROCESSORS

     CHECK POINT   START OF SOLVER    

     CHECK POINT  END OF SOLVER       

       ELAPSED USER TIME (SEC)      =  0.10000    
       ELAPSED SYSTEM TIME (SEC)    =   0.0000    
       ELAPSED TOTAL CPU TIME (SEC) =  0.10000    
       ELAPSED WALLCLOCK TIME (SEC) =          0

               CONVERGENCE CHECKS FOR EQUILIBRIUM ITERATION     1


 AVERAGE FORCE                      2.331E-02   TIME AVG. FORCE       5.138E-03
 LARGEST RESIDUAL FORCE             2.461E-04   AT NODE         37   DOF  1
   INSTANCE: PART-622-1                                                                      
 LARGEST INCREMENT OF DISP.         9.867E-05   AT NODE        407   DOF  3
   INSTANCE: PART-622-1                                                                      
 LARGEST CORRECTION TO DISP.       -2.310E-06   AT NODE        404   DOF  3
   INSTANCE: PART-622-1                                                                      
          FORCE     EQUILIBRIUM NOT ACHIEVED WITHIN TOLERANCE.

 AVERAGE MOMENT                     6.523E-05   TIME AVG. MOMENT      1.598E-05
 LARGEST RESIDUAL MOMENT            4.483E-08   AT NODE         37   DOF  5
   INSTANCE: PART-622-1                                                                      
 LARGEST INCREMENT OF ROTATION     -3.811E-03   AT NODE          3   DOF  5
   INSTANCE: PART-622-1                                                                      
 LARGEST CORRECTION TO ROTATION     5.336E-05   AT NODE        416   DOF  5
   INSTANCE: PART-622-1                                                                      
 ESTIMATE OF ROTATION CORRECTION    7.812E-09
 MOMENT    EQUILIB. ACCEPTED BASED ON SMALL RESIDUAL AND ESTIMATED CORRECTION

  NUMBER OF EQUATIONS =     29640     NUMBER OF RHS =    1
  NUMBER OF FLOATING PT. OPERATIONS =  7.47E+08

  USING THE DIRECT SOLVER WITH   2 PROCESSORS

     CHECK POINT   START OF SOLVER    

     CHECK POINT  END OF SOLVER       

       ELAPSED USER TIME (SEC)      =  0.20000    
       ELAPSED SYSTEM TIME (SEC)    =   0.0000    
       ELAPSED TOTAL CPU TIME (SEC) =  0.20000    
       ELAPSED WALLCLOCK TIME (SEC) =          0

               CONVERGENCE CHECKS FOR EQUILIBRIUM ITERATION     2


 AVERAGE FORCE                      2.331E-02   TIME AVG. FORCE       5.138E-03
 LARGEST RESIDUAL FORCE            -5.303E-08   AT NODE       1183   DOF  3
   INSTANCE: PART-622-1                                                                      
 LARGEST INCREMENT OF DISP.         9.869E-05   AT NODE        407   DOF  3
   INSTANCE: PART-622-1                                                                      
 LARGEST CORRECTION TO DISP.        2.106E-08   AT NODE        406   DOF  3
   INSTANCE: PART-622-1                                                                      
          THE FORCE     EQUILIBRIUM EQUATIONS HAVE CONVERGED

 AVERAGE MOMENT                     6.524E-05   TIME AVG. MOMENT      1.598E-05
 LARGEST RESIDUAL MOMENT           -1.149E-11   AT NODE         62   DOF  4
   INSTANCE: PART-622-1                                                                      
 LARGEST INCREMENT OF ROTATION     -3.811E-03   AT NODE          3   DOF  5
   INSTANCE: PART-622-1                                                                      
 LARGEST CORRECTION TO ROTATION     5.580E-07   AT NODE        404   DOF  4
   INSTANCE: PART-622-1                                                                      
          THE MOMENT    EQUILIBRIUM EQUATIONS HAVE CONVERGED
          TIME INCREMENT MAY NOW INCREASE TO    8.650E-03

 ITERATION SUMMARY FOR THE INCREMENT:   2 TOTAL ITERATIONS, OF WHICH
   0 ARE SEVERE DISCONTINUITY ITERATIONS AND  2 ARE EQUILIBRIUM ITERATIONS.

 TIME INCREMENT COMPLETED  5.767E-03,  FRACTION OF STEP COMPLETED  1.720E-02
 STEP TIME COMPLETED       1.720E-02,  TOTAL TIME COMPLETED        1.720E-02


  INCREMENT    13 STARTS. ATTEMPT NUMBER  1, TIME INCREMENT  8.650E-03

  NUMBER OF EQUATIONS =     29640     NUMBER OF RHS =    1
  NUMBER OF FLOATING PT. OPERATIONS =  7.47E+08

  USING THE DIRECT SOLVER WITH   2 PROCESSORS

     CHECK POINT   START OF SOLVER    

     CHECK POINT  END OF SOLVER       

       ELAPSED USER TIME (SEC)      =  0.20000    
       ELAPSED SYSTEM TIME (SEC)    =   0.0000    
       ELAPSED TOTAL CPU TIME (SEC) =  0.20000    
       ELAPSED WALLCLOCK TIME (SEC) =          0

               CONVERGENCE CHECKS FOR EQUILIBRIUM ITERATION     1


 AVERAGE FORCE                      3.942E-02   TIME AVG. FORCE       7.776E-03
 LARGEST RESIDUAL FORCE             1.976E-03   AT NODE         37   DOF  1
   INSTANCE: PART-622-1                                                                      
 LARGEST INCREMENT OF DISP.        -1.417E-04   AT NODE        433   DOF  3
   INSTANCE: PART-622-1                                                                      
 LARGEST CORRECTION TO DISP.       -6.724E-06   AT NODE        404   DOF  3
   INSTANCE: PART-622-1                                                                      
          FORCE     EQUILIBRIUM NOT ACHIEVED WITHIN TOLERANCE.

 AVERAGE MOMENT                     9.737E-05   TIME AVG. MOMENT      2.224E-05
 LARGEST RESIDUAL MOMENT            3.593E-07   AT NODE         37   DOF  5
   INSTANCE: PART-622-1                                                                      
 LARGEST INCREMENT OF ROTATION     -5.594E-03   AT NODE          3   DOF  5
   INSTANCE: PART-622-1                                                                      
 LARGEST CORRECTION TO ROTATION     1.526E-04   AT NODE        416   DOF  5
   INSTANCE: PART-622-1                                                                      
          MOMENT    EQUILIBRIUM NOT ACHIEVED WITHIN TOLERANCE.

  NUMBER OF EQUATIONS =     29640     NUMBER OF RHS =    1
  NUMBER OF FLOATING PT. OPERATIONS =  7.47E+08

  USING THE DIRECT SOLVER WITH   2 PROCESSORS

     CHECK POINT   START OF SOLVER    

     CHECK POINT  END OF SOLVER       

       ELAPSED USER TIME (SEC)      =  0.20000    
       ELAPSED SYSTEM TIME (SEC)    =   0.0000    
       ELAPSED TOTAL CPU TIME (SEC) =  0.20000    
       ELAPSED WALLCLOCK TIME (SEC) =          0

               CONVERGENCE CHECKS FOR EQUILIBRIUM ITERATION     2


 AVERAGE FORCE                      3.943E-02   TIME AVG. FORCE       7.777E-03
 LARGEST RESIDUAL FORCE            -8.432E-07   AT NODE        404   DOF  2
   INSTANCE: PART-622-1                                                                      
 LARGEST INCREMENT OF DISP.        -1.418E-04   AT NODE        433   DOF  3
   INSTANCE: PART-622-1                                                                      
 LARGEST CORRECTION TO DISP.        1.122E-07   AT NODE        406   DOF  3
   INSTANCE: PART-622-1                                                                      
          THE FORCE     EQUILIBRIUM EQUATIONS HAVE CONVERGED

 AVERAGE MOMENT                     9.738E-05   TIME AVG. MOMENT      2.224E-05
 LARGEST RESIDUAL MOMENT           -9.555E-11   AT NODE        404   DOF  4
   INSTANCE: PART-622-1                                                                      
 LARGEST INCREMENT OF ROTATION     -5.596E-03   AT NODE          3   DOF  5
   INSTANCE: PART-622-1                                                                      
 LARGEST CORRECTION TO ROTATION     3.089E-06   AT NODE        404   DOF  4
   INSTANCE: PART-622-1                                                                      
          THE MOMENT    EQUILIBRIUM EQUATIONS HAVE CONVERGED
          TIME INCREMENT MAY NOW INCREASE TO    1.297E-02

 ITERATION SUMMARY FOR THE INCREMENT:   2 TOTAL ITERATIONS, OF WHICH
   0 ARE SEVERE DISCONTINUITY ITERATIONS AND  2 ARE EQUILIBRIUM ITERATIONS.

 TIME INCREMENT COMPLETED  8.650E-03,  FRACTION OF STEP COMPLETED  2.585E-02
 STEP TIME COMPLETED       2.585E-02,  TOTAL TIME COMPLETED        2.585E-02


  INCREMENT    14 STARTS. ATTEMPT NUMBER  1, TIME INCREMENT  1.297E-02

  NUMBER OF EQUATIONS =     29640     NUMBER OF RHS =    1
  NUMBER OF FLOATING PT. OPERATIONS =  7.47E+08

  USING THE DIRECT SOLVER WITH   2 PROCESSORS

     CHECK POINT   START OF SOLVER    

     CHECK POINT  END OF SOLVER       

       ELAPSED USER TIME (SEC)      =  0.10000    
       ELAPSED SYSTEM TIME (SEC)    =   0.0000    
       ELAPSED TOTAL CPU TIME (SEC) =  0.10000    
       ELAPSED WALLCLOCK TIME (SEC) =          0

               CONVERGENCE CHECKS FOR EQUILIBRIUM ITERATION     1


 AVERAGE FORCE                      6.787E-02   TIME AVG. FORCE       1.207E-02
 LARGEST RESIDUAL FORCE             1.385E-02   AT NODE         37   DOF  1
   INSTANCE: PART-622-1                                                                      
 LARGEST INCREMENT OF DISP.        -1.959E-04   AT NODE        433   DOF  3
   INSTANCE: PART-622-1                                                                      
 LARGEST CORRECTION TO DISP.       -1.769E-05   AT NODE        405   DOF  3
   INSTANCE: PART-622-1                                                                      
          FORCE     EQUILIBRIUM NOT ACHIEVED WITHIN TOLERANCE.

 AVERAGE MOMENT                     1.447E-04   TIME AVG. MOMENT      3.098E-05
 LARGEST RESIDUAL MOMENT            2.538E-06   AT NODE         37   DOF  5
   INSTANCE: PART-622-1                                                                      
 LARGEST INCREMENT OF ROTATION     -8.054E-03   AT NODE          3   DOF  5
   INSTANCE: PART-622-1                                                                      
 LARGEST CORRECTION TO ROTATION     4.025E-04   AT NODE        417   DOF  5
   INSTANCE: PART-622-1                                                                      
          MOMENT    EQUILIBRIUM NOT ACHIEVED WITHIN TOLERANCE.

  NUMBER OF EQUATIONS =     29640     NUMBER OF RHS =    1
  NUMBER OF FLOATING PT. OPERATIONS =  7.47E+08

  USING THE DIRECT SOLVER WITH   2 PROCESSORS

     CHECK POINT   START OF SOLVER    

     CHECK POINT  END OF SOLVER       

       ELAPSED USER TIME (SEC)      =  0.20000    
       ELAPSED SYSTEM TIME (SEC)    =  0.10000    
       ELAPSED TOTAL CPU TIME (SEC) =  0.30000    
       ELAPSED WALLCLOCK TIME (SEC) =          0

               CONVERGENCE CHECKS FOR EQUILIBRIUM ITERATION     2


 AVERAGE FORCE                      6.795E-02   TIME AVG. FORCE       1.207E-02
 LARGEST RESIDUAL FORCE            -1.836E-05   AT NODE        404   DOF  2
   INSTANCE: PART-622-1                                                                      
 LARGEST INCREMENT OF DISP.        -1.963E-04   AT NODE        433   DOF  3
   INSTANCE: PART-622-1                                                                      
 LARGEST CORRECTION TO DISP.        4.818E-07   AT NODE        407   DOF  3
   INSTANCE: PART-622-1                                                                      
          THE FORCE     EQUILIBRIUM EQUATIONS HAVE CONVERGED

 AVERAGE MOMENT                     1.447E-04   TIME AVG. MOMENT      3.099E-05
 LARGEST RESIDUAL MOMENT           -2.065E-09   AT NODE        404   DOF  4
   INSTANCE: PART-622-1                                                                      
 LARGEST INCREMENT OF ROTATION     -8.065E-03   AT NODE          3   DOF  5
   INSTANCE: PART-622-1                                                                      
 LARGEST CORRECTION TO ROTATION     1.453E-05   AT NODE        404   DOF  4
   INSTANCE: PART-622-1                                                                      
          THE MOMENT    EQUILIBRIUM EQUATIONS HAVE CONVERGED
          TIME INCREMENT MAY NOW INCREASE TO    1.946E-02

 ITERATION SUMMARY FOR THE INCREMENT:   2 TOTAL ITERATIONS, OF WHICH
   0 ARE SEVERE DISCONTINUITY ITERATIONS AND  2 ARE EQUILIBRIUM ITERATIONS.

 TIME INCREMENT COMPLETED  1.297E-02,  FRACTION OF STEP COMPLETED  3.882E-02
 STEP TIME COMPLETED       3.882E-02,  TOTAL TIME COMPLETED        3.882E-02


  INCREMENT    15 STARTS. ATTEMPT NUMBER  1, TIME INCREMENT  1.946E-02

  NUMBER OF EQUATIONS =     29640     NUMBER OF RHS =    1
  NUMBER OF FLOATING PT. OPERATIONS =  7.47E+08

  USING THE DIRECT SOLVER WITH   2 PROCESSORS

     CHECK POINT   START OF SOLVER    

     CHECK POINT  END OF SOLVER       

       ELAPSED USER TIME (SEC)      =  0.20000    
       ELAPSED SYSTEM TIME (SEC)    =   0.0000    
       ELAPSED TOTAL CPU TIME (SEC) =  0.20000    
       ELAPSED WALLCLOCK TIME (SEC) =          1

               CONVERGENCE CHECKS FOR EQUILIBRIUM ITERATION     1


 AVERAGE FORCE                      0.116       TIME AVG. FORCE       1.904E-02
 LARGEST RESIDUAL FORCE             7.314E-02   AT NODE         37   DOF  1
   INSTANCE: PART-622-1                                                                      
 LARGEST INCREMENT OF DISP.        -2.576E-04   AT NODE        432   DOF  3
   INSTANCE: PART-622-1                                                                      
 LARGEST CORRECTION TO DISP.       -3.882E-05   AT NODE        405   DOF  3
   INSTANCE: PART-622-1                                                                      
          FORCE     EQUILIBRIUM NOT ACHIEVED WITHIN TOLERANCE.

 AVERAGE MOMENT                     2.139E-04   TIME AVG. MOMENT      4.318E-05
 LARGEST RESIDUAL MOMENT            1.360E-05   AT NODE         37   DOF  5
   INSTANCE: PART-622-1                                                                      
 LARGEST INCREMENT OF ROTATION     -1.154E-02   AT NODE         38   DOF  5
   INSTANCE: PART-622-1                                                                      
 LARGEST CORRECTION TO ROTATION     9.173E-04   AT NODE        417   DOF  5
   INSTANCE: PART-622-1                                                                      
          MOMENT    EQUILIBRIUM NOT ACHIEVED WITHIN TOLERANCE.

  NUMBER OF EQUATIONS =     29640     NUMBER OF RHS =    1
  NUMBER OF FLOATING PT. OPERATIONS =  7.47E+08

  USING THE DIRECT SOLVER WITH   2 PROCESSORS

     CHECK POINT   START OF SOLVER    

     CHECK POINT  END OF SOLVER       

       ELAPSED USER TIME (SEC)      =  0.20000    
       ELAPSED SYSTEM TIME (SEC)    =   0.0000    
       ELAPSED TOTAL CPU TIME (SEC) =  0.20000    
       ELAPSED WALLCLOCK TIME (SEC) =          0

               CONVERGENCE CHECKS FOR EQUILIBRIUM ITERATION     2


 AVERAGE FORCE                      0.117       TIME AVG. FORCE       1.906E-02
 LARGEST RESIDUAL FORCE            -2.347E-04   AT NODE        405   DOF  2
   INSTANCE: PART-622-1                                                                      
 LARGEST INCREMENT OF DISP.        -2.590E-04   AT NODE        432   DOF  3
   INSTANCE: PART-622-1                                                                      
 LARGEST CORRECTION TO DISP.        1.469E-06   AT NODE        408   DOF  3
   INSTANCE: PART-622-1                                                                      
          FORCE     EQUILIBRIUM NOT ACHIEVED WITHIN TOLERANCE.

 AVERAGE MOMENT                     2.140E-04   TIME AVG. MOMENT      4.319E-05
 LARGEST RESIDUAL MOMENT            2.630E-08   AT NODE        436   DOF  4
   INSTANCE: PART-622-1                                                                      
 LARGEST INCREMENT OF ROTATION     -1.157E-02   AT NODE         38   DOF  5
   INSTANCE: PART-622-1                                                                      
 LARGEST CORRECTION TO ROTATION     5.203E-05   AT NODE        405   DOF  4
   INSTANCE: PART-622-1                                                                      
          THE MOMENT    EQUILIBRIUM EQUATIONS HAVE CONVERGED

  NUMBER OF EQUATIONS =     29640     NUMBER OF RHS =    1
  NUMBER OF FLOATING PT. OPERATIONS =  7.47E+08

  USING THE DIRECT SOLVER WITH   2 PROCESSORS

     CHECK POINT   START OF SOLVER    

     CHECK POINT  END OF SOLVER       

       ELAPSED USER TIME (SEC)      =  0.20000    
       ELAPSED SYSTEM TIME (SEC)    =   0.0000    
       ELAPSED TOTAL CPU TIME (SEC) =  0.20000    
       ELAPSED WALLCLOCK TIME (SEC) =          0

               CONVERGENCE CHECKS FOR EQUILIBRIUM ITERATION     3


 AVERAGE FORCE                      0.117       TIME AVG. FORCE       1.906E-02
 LARGEST RESIDUAL FORCE             4.753E-08   AT NODE       1106   DOF  3
   INSTANCE: PART-622-1                                                                      
 LARGEST INCREMENT OF DISP.        -2.591E-04   AT NODE        432   DOF  3
   INSTANCE: PART-622-1                                                                      
 LARGEST CORRECTION TO DISP.        2.475E-08   AT NODE        406   DOF  3
   INSTANCE: PART-622-1                                                                      
          THE FORCE     EQUILIBRIUM EQUATIONS HAVE CONVERGED

 AVERAGE MOMENT                     2.140E-04   TIME AVG. MOMENT      4.319E-05
 LARGEST RESIDUAL MOMENT           -4.111E-11   AT NODE       2981   DOF  6
   INSTANCE: PART-622-1                                                                      
 LARGEST INCREMENT OF ROTATION     -1.157E-02   AT NODE         38   DOF  5
   INSTANCE: PART-622-1                                                                      
 LARGEST CORRECTION TO ROTATION    -6.472E-07   AT NODE        419   DOF  5
   INSTANCE: PART-622-1                                                                      
          THE MOMENT    EQUILIBRIUM EQUATIONS HAVE CONVERGED
          TIME INCREMENT MAY NOW INCREASE TO    2.919E-02

 ITERATION SUMMARY FOR THE INCREMENT:   3 TOTAL ITERATIONS, OF WHICH
   0 ARE SEVERE DISCONTINUITY ITERATIONS AND  3 ARE EQUILIBRIUM ITERATIONS.

 TIME INCREMENT COMPLETED  1.946E-02,  FRACTION OF STEP COMPLETED  5.829E-02
 STEP TIME COMPLETED       5.829E-02,  TOTAL TIME COMPLETED        5.829E-02


  INCREMENT    16 STARTS. ATTEMPT NUMBER  1, TIME INCREMENT  2.919E-02

  NUMBER OF EQUATIONS =     29640     NUMBER OF RHS =    1
  NUMBER OF FLOATING PT. OPERATIONS =  7.47E+08

  USING THE DIRECT SOLVER WITH   2 PROCESSORS

     CHECK POINT   START OF SOLVER    

     CHECK POINT  END OF SOLVER       

       ELAPSED USER TIME (SEC)      =  0.20000    
       ELAPSED SYSTEM TIME (SEC)    =   0.0000    
       ELAPSED TOTAL CPU TIME (SEC) =  0.20000    
       ELAPSED WALLCLOCK TIME (SEC) =          1

               CONVERGENCE CHECKS FOR EQUILIBRIUM ITERATION     1


 AVERAGE FORCE                      0.193       TIME AVG. FORCE       2.995E-02
 LARGEST RESIDUAL FORCE             0.263       AT NODE         37   DOF  1
   INSTANCE: PART-622-1                                                                      
 LARGEST INCREMENT OF DISP.         3.388E-04   AT NODE        326   DOF  3
   INSTANCE: PART-622-1                                                                      
 LARGEST CORRECTION TO DISP.       -6.619E-05   AT NODE        406   DOF  3
   INSTANCE: PART-622-1                                                                      
          FORCE     EQUILIBRIUM NOT ACHIEVED WITHIN TOLERANCE.

 AVERAGE MOMENT                     3.156E-04   TIME AVG. MOMENT      6.021E-05
 LARGEST RESIDUAL MOMENT            4.972E-05   AT NODE         37   DOF  5
   INSTANCE: PART-622-1                                                                      
 LARGEST INCREMENT OF ROTATION     -1.661E-02   AT NODE         38   DOF  5
   INSTANCE: PART-622-1                                                                      
 LARGEST CORRECTION TO ROTATION     1.721E-03   AT NODE        418   DOF  5
   INSTANCE: PART-622-1                                                                      
          MOMENT    EQUILIBRIUM NOT ACHIEVED WITHIN TOLERANCE.

  NUMBER OF EQUATIONS =     29640     NUMBER OF RHS =    1
  NUMBER OF FLOATING PT. OPERATIONS =  7.47E+08

  USING THE DIRECT SOLVER WITH   2 PROCESSORS

     CHECK POINT   START OF SOLVER    

     CHECK POINT  END OF SOLVER       

       ELAPSED USER TIME (SEC)      =  0.10000    
       ELAPSED SYSTEM TIME (SEC)    =   0.0000    
       ELAPSED TOTAL CPU TIME (SEC) =  0.10000    
       ELAPSED WALLCLOCK TIME (SEC) =          0

               CONVERGENCE CHECKS FOR EQUILIBRIUM ITERATION     2


 AVERAGE FORCE                      0.194       TIME AVG. FORCE       3.001E-02
 LARGEST RESIDUAL FORCE            -1.507E-03   AT NODE        407   DOF  2
   INSTANCE: PART-622-1                                                                      
 LARGEST INCREMENT OF DISP.         3.396E-04   AT NODE        326   DOF  3
   INSTANCE: PART-622-1                                                                      
 LARGEST CORRECTION TO DISP.        3.118E-06   AT NODE        410   DOF  3
   INSTANCE: PART-622-1                                                                      
          FORCE     EQUILIBRIUM NOT ACHIEVED WITHIN TOLERANCE.

 AVERAGE MOMENT                     3.159E-04   TIME AVG. MOMENT      6.023E-05
 LARGEST RESIDUAL MOMENT           -1.686E-07   AT NODE        407   DOF  4
   INSTANCE: PART-622-1                                                                      
 LARGEST INCREMENT OF ROTATION     -1.668E-02   AT NODE         38   DOF  5
   INSTANCE: PART-622-1                                                                      
 LARGEST CORRECTION TO ROTATION     1.318E-04   AT NODE        407   DOF  4
   INSTANCE: PART-622-1                                                                      
          THE MOMENT    EQUILIBRIUM EQUATIONS HAVE CONVERGED

  NUMBER OF EQUATIONS =     29640     NUMBER OF RHS =    1
  NUMBER OF FLOATING PT. OPERATIONS =  7.47E+08

  USING THE DIRECT SOLVER WITH   2 PROCESSORS

     CHECK POINT   START OF SOLVER    

     CHECK POINT  END OF SOLVER       

       ELAPSED USER TIME (SEC)      =  0.20000    
       ELAPSED SYSTEM TIME (SEC)    =   0.0000    
       ELAPSED TOTAL CPU TIME (SEC) =  0.20000    
       ELAPSED WALLCLOCK TIME (SEC) =          0

               CONVERGENCE CHECKS FOR EQUILIBRIUM ITERATION     3


 AVERAGE FORCE                      0.194       TIME AVG. FORCE       3.001E-02
 LARGEST RESIDUAL FORCE             1.248E-06   AT NODE         63   DOF  1
   INSTANCE: PART-622-1                                                                      
 LARGEST INCREMENT OF DISP.         3.396E-04   AT NODE        326   DOF  3
   INSTANCE: PART-622-1                                                                      
 LARGEST CORRECTION TO DISP.        1.327E-07   AT NODE        408   DOF  3
   INSTANCE: PART-622-1                                                                      
          THE FORCE     EQUILIBRIUM EQUATIONS HAVE CONVERGED

 AVERAGE MOMENT                     3.159E-04   TIME AVG. MOMENT      6.023E-05
 LARGEST RESIDUAL MOMENT           -4.573E-10   AT NODE       1714   DOF  6
   INSTANCE: PART-622-1                                                                      
 LARGEST INCREMENT OF ROTATION     -1.668E-02   AT NODE         38   DOF  5
   INSTANCE: PART-622-1                                                                      
 LARGEST CORRECTION TO ROTATION    -4.021E-06   AT NODE        420   DOF  5
   INSTANCE: PART-622-1                                                                      
          THE MOMENT    EQUILIBRIUM EQUATIONS HAVE CONVERGED
          TIME INCREMENT MAY NOW INCREASE TO    4.379E-02

 ITERATION SUMMARY FOR THE INCREMENT:   3 TOTAL ITERATIONS, OF WHICH
   0 ARE SEVERE DISCONTINUITY ITERATIONS AND  3 ARE EQUILIBRIUM ITERATIONS.

 TIME INCREMENT COMPLETED  2.919E-02,  FRACTION OF STEP COMPLETED  8.748E-02
 STEP TIME COMPLETED       8.748E-02,  TOTAL TIME COMPLETED        8.748E-02


  INCREMENT    17 STARTS. ATTEMPT NUMBER  1, TIME INCREMENT  4.379E-02

  NUMBER OF EQUATIONS =     29640     NUMBER OF RHS =    1
  NUMBER OF FLOATING PT. OPERATIONS =  7.47E+08

  USING THE DIRECT SOLVER WITH   2 PROCESSORS

     CHECK POINT   START OF SOLVER    

     CHECK POINT  END OF SOLVER       

       ELAPSED USER TIME (SEC)      =  0.20000    
       ELAPSED SYSTEM TIME (SEC)    =   0.0000    
       ELAPSED TOTAL CPU TIME (SEC) =  0.20000    
       ELAPSED WALLCLOCK TIME (SEC) =          1

               CONVERGENCE CHECKS FOR EQUILIBRIUM ITERATION     1


 AVERAGE FORCE                      0.305       TIME AVG. FORCE       4.617E-02
 LARGEST RESIDUAL FORCE             0.655       AT NODE         37   DOF  1
   INSTANCE: PART-622-1                                                                      
 LARGEST INCREMENT OF DISP.         4.755E-04   AT NODE        320   DOF  3
   INSTANCE: PART-622-1                                                                      
 LARGEST CORRECTION TO DISP.       -8.704E-05   AT NODE        409   DOF  3
   INSTANCE: PART-622-1                                                                      
          FORCE     EQUILIBRIUM NOT ACHIEVED WITHIN TOLERANCE.

 AVERAGE MOMENT                     4.670E-04   TIME AVG. MOMENT      8.416E-05
 LARGEST RESIDUAL MOMENT            1.264E-04   AT NODE         37   DOF  5
   INSTANCE: PART-622-1                                                                      
 LARGEST INCREMENT OF ROTATION     -2.380E-02   AT NODE         38   DOF  5
   INSTANCE: PART-622-1                                                                      
 LARGEST CORRECTION TO ROTATION     2.715E-03   AT NODE        419   DOF  5
   INSTANCE: PART-622-1                                                                      
          MOMENT    EQUILIBRIUM NOT ACHIEVED WITHIN TOLERANCE.

  NUMBER OF EQUATIONS =     29640     NUMBER OF RHS =    1
  NUMBER OF FLOATING PT. OPERATIONS =  7.47E+08

  USING THE DIRECT SOLVER WITH   2 PROCESSORS

     CHECK POINT   START OF SOLVER    

     CHECK POINT  END OF SOLVER       

       ELAPSED USER TIME (SEC)      =  0.20000    
       ELAPSED SYSTEM TIME (SEC)    =   0.0000    
       ELAPSED TOTAL CPU TIME (SEC) =  0.20000    
       ELAPSED WALLCLOCK TIME (SEC) =          0

               CONVERGENCE CHECKS FOR EQUILIBRIUM ITERATION     2


 AVERAGE FORCE                      0.307       TIME AVG. FORCE       4.627E-02
 LARGEST RESIDUAL FORCE            -4.687E-03   AT NODE        409   DOF  2
   INSTANCE: PART-622-1                                                                      
 LARGEST INCREMENT OF DISP.         4.765E-04   AT NODE        319   DOF  3
   INSTANCE: PART-622-1                                                                      
 LARGEST CORRECTION TO DISP.        5.155E-06   AT NODE        411   DOF  3
   INSTANCE: PART-622-1                                                                      
          FORCE     EQUILIBRIUM NOT ACHIEVED WITHIN TOLERANCE.

 AVERAGE MOMENT                     4.677E-04   TIME AVG. MOMENT      8.420E-05
 LARGEST RESIDUAL MOMENT           -5.238E-07   AT NODE        409   DOF  4
   INSTANCE: PART-622-1                                                                      
 LARGEST INCREMENT OF ROTATION     -2.395E-02   AT NODE         38   DOF  5
   INSTANCE: PART-622-1                                                                      
 LARGEST CORRECTION TO ROTATION     2.333E-04   AT NODE        409   DOF  4
   INSTANCE: PART-622-1                                                                      
          MOMENT    EQUILIBRIUM NOT ACHIEVED WITHIN TOLERANCE.

  NUMBER OF EQUATIONS =     29640     NUMBER OF RHS =    1
  NUMBER OF FLOATING PT. OPERATIONS =  7.47E+08

  USING THE DIRECT SOLVER WITH   2 PROCESSORS

     CHECK POINT   START OF SOLVER    

     CHECK POINT  END OF SOLVER       

       ELAPSED USER TIME (SEC)      =  0.10000    
       ELAPSED SYSTEM TIME (SEC)    =   0.0000    
       ELAPSED TOTAL CPU TIME (SEC) =  0.10000    
       ELAPSED WALLCLOCK TIME (SEC) =          0

               CONVERGENCE CHECKS FOR EQUILIBRIUM ITERATION     3


 AVERAGE FORCE                      0.307       TIME AVG. FORCE       4.628E-02
 LARGEST RESIDUAL FORCE             1.345E-05   AT NODE         63   DOF  1
   INSTANCE: PART-622-1                                                                      
 LARGEST INCREMENT OF DISP.         4.765E-04   AT NODE        319   DOF  3
   INSTANCE: PART-622-1                                                                      
 LARGEST CORRECTION TO DISP.        3.756E-07   AT NODE        410   DOF  3
   INSTANCE: PART-622-1                                                                      
          THE FORCE     EQUILIBRIUM EQUATIONS HAVE CONVERGED

 AVERAGE MOMENT                     4.677E-04   TIME AVG. MOMENT      8.420E-05
 LARGEST RESIDUAL MOMENT           -2.542E-09   AT NODE       2965   DOF  6
   INSTANCE: PART-622-1                                                                      
 LARGEST INCREMENT OF ROTATION     -2.396E-02   AT NODE         38   DOF  5
   INSTANCE: PART-622-1                                                                      
 LARGEST CORRECTION TO ROTATION    -1.335E-05   AT NODE          3   DOF  5
   INSTANCE: PART-622-1                                                                      
          THE MOMENT    EQUILIBRIUM EQUATIONS HAVE CONVERGED
          TIME INCREMENT MAY NOW INCREASE TO    6.568E-02

 ITERATION SUMMARY FOR THE INCREMENT:   3 TOTAL ITERATIONS, OF WHICH
   0 ARE SEVERE DISCONTINUITY ITERATIONS AND  3 ARE EQUILIBRIUM ITERATIONS.

 TIME INCREMENT COMPLETED  4.379E-02,  FRACTION OF STEP COMPLETED  0.131    
 STEP TIME COMPLETED       0.131    ,  TOTAL TIME COMPLETED        0.131    


  INCREMENT    18 STARTS. ATTEMPT NUMBER  1, TIME INCREMENT  6.568E-02

  NUMBER OF EQUATIONS =     29640     NUMBER OF RHS =    1
  NUMBER OF FLOATING PT. OPERATIONS =  7.47E+08

  USING THE DIRECT SOLVER WITH   2 PROCESSORS

     CHECK POINT   START OF SOLVER    

     CHECK POINT  END OF SOLVER       

       ELAPSED USER TIME (SEC)      =  0.20000    
       ELAPSED SYSTEM TIME (SEC)    =   0.0000    
       ELAPSED TOTAL CPU TIME (SEC) =  0.20000    
       ELAPSED WALLCLOCK TIME (SEC) =          1

               CONVERGENCE CHECKS FOR EQUILIBRIUM ITERATION     1


 AVERAGE FORCE                      0.461       TIME AVG. FORCE       6.932E-02
 LARGEST RESIDUAL FORCE              1.35       AT NODE         37   DOF  1
   INSTANCE: PART-622-1                                                                      
 LARGEST INCREMENT OF DISP.        -6.799E-04   AT NODE        530   DOF  3
   INSTANCE: PART-622-1                                                                      
 LARGEST CORRECTION TO DISP.       -1.162E-04   AT NODE        333   DOF  3
   INSTANCE: PART-622-1                                                                      
          FORCE     EQUILIBRIUM NOT ACHIEVED WITHIN TOLERANCE.

 AVERAGE MOMENT                     7.006E-04   TIME AVG. MOMENT      1.184E-04
 LARGEST RESIDUAL MOMENT            2.678E-04   AT NODE         37   DOF  5
   INSTANCE: PART-622-1                                                                      
 LARGEST INCREMENT OF ROTATION     -3.407E-02   AT NODE         38   DOF  5
   INSTANCE: PART-622-1                                                                      
 LARGEST CORRECTION TO ROTATION     3.984E-03   AT NODE        420   DOF  5
   INSTANCE: PART-622-1                                                                      
          MOMENT    EQUILIBRIUM NOT ACHIEVED WITHIN TOLERANCE.

  NUMBER OF EQUATIONS =     29640     NUMBER OF RHS =    1
  NUMBER OF FLOATING PT. OPERATIONS =  7.47E+08

  USING THE DIRECT SOLVER WITH   2 PROCESSORS

     CHECK POINT   START OF SOLVER    

     CHECK POINT  END OF SOLVER       

       ELAPSED USER TIME (SEC)      =  0.20000    
       ELAPSED SYSTEM TIME (SEC)    =   0.0000    
       ELAPSED TOTAL CPU TIME (SEC) =  0.20000    
       ELAPSED WALLCLOCK TIME (SEC) =          0

               CONVERGENCE CHECKS FOR EQUILIBRIUM ITERATION     2


 AVERAGE FORCE                      0.463       TIME AVG. FORCE       6.941E-02
 LARGEST RESIDUAL FORCE            -9.966E-03   AT NODE        412   DOF  2
   INSTANCE: PART-622-1                                                                      
 LARGEST INCREMENT OF DISP.        -6.799E-04   AT NODE        530   DOF  3
   INSTANCE: PART-622-1                                                                      
 LARGEST CORRECTION TO DISP.        7.374E-06   AT NODE        413   DOF  3
   INSTANCE: PART-622-1                                                                      
          FORCE     EQUILIBRIUM NOT ACHIEVED WITHIN TOLERANCE.

 AVERAGE MOMENT                     7.023E-04   TIME AVG. MOMENT      1.185E-04
 LARGEST RESIDUAL MOMENT           -1.098E-06   AT NODE        412   DOF  4
   INSTANCE: PART-622-1                                                                      
 LARGEST INCREMENT OF ROTATION     -3.430E-02   AT NODE         38   DOF  5
   INSTANCE: PART-622-1                                                                      
 LARGEST CORRECTION TO ROTATION     3.404E-04   AT NODE        411   DOF  4
   INSTANCE: PART-622-1                                                                      
          MOMENT    EQUILIBRIUM NOT ACHIEVED WITHIN TOLERANCE.

  NUMBER OF EQUATIONS =     29640     NUMBER OF RHS =    1
  NUMBER OF FLOATING PT. OPERATIONS =  7.47E+08

  USING THE DIRECT SOLVER WITH   2 PROCESSORS

     CHECK POINT   START OF SOLVER    

     CHECK POINT  END OF SOLVER       

       ELAPSED USER TIME (SEC)      =  0.20000    
       ELAPSED SYSTEM TIME (SEC)    =   0.0000    
       ELAPSED TOTAL CPU TIME (SEC) =  0.20000    
       ELAPSED WALLCLOCK TIME (SEC) =          0

               CONVERGENCE CHECKS FOR EQUILIBRIUM ITERATION     3


 AVERAGE FORCE                      0.463       TIME AVG. FORCE       6.941E-02
 LARGEST RESIDUAL FORCE             1.228E-04   AT NODE        332   DOF  2
   INSTANCE: PART-622-1                                                                      
 LARGEST INCREMENT OF DISP.        -6.803E-04   AT NODE        530   DOF  3
   INSTANCE: PART-622-1                                                                      
 LARGEST CORRECTION TO DISP.        1.243E-06   AT NODE        331   DOF  3
   INSTANCE: PART-622-1                                                                      
          THE FORCE     EQUILIBRIUM EQUATIONS HAVE CONVERGED

 AVERAGE MOMENT                     7.024E-04   TIME AVG. MOMENT      1.185E-04
 LARGEST RESIDUAL MOMENT           -1.395E-08   AT NODE        509   DOF  4
   INSTANCE: PART-622-1                                                                      
 LARGEST INCREMENT OF ROTATION     -3.433E-02   AT NODE         38   DOF  5
   INSTANCE: PART-622-1                                                                      
 LARGEST CORRECTION TO ROTATION    -3.757E-05   AT NODE        332   DOF  4
   INSTANCE: PART-622-1                                                                      
          THE MOMENT    EQUILIBRIUM EQUATIONS HAVE CONVERGED
          TIME INCREMENT MAY NOW INCREASE TO    9.853E-02

 ITERATION SUMMARY FOR THE INCREMENT:   3 TOTAL ITERATIONS, OF WHICH
   0 ARE SEVERE DISCONTINUITY ITERATIONS AND  3 ARE EQUILIBRIUM ITERATIONS.

 TIME INCREMENT COMPLETED  6.568E-02,  FRACTION OF STEP COMPLETED  0.197    
 STEP TIME COMPLETED       0.197    ,  TOTAL TIME COMPLETED        0.197    


  INCREMENT    19 STARTS. ATTEMPT NUMBER  1, TIME INCREMENT  9.853E-02

  NUMBER OF EQUATIONS =     29640     NUMBER OF RHS =    1
  NUMBER OF FLOATING PT. OPERATIONS =  7.47E+08

  USING THE DIRECT SOLVER WITH   2 PROCESSORS

     CHECK POINT   START OF SOLVER    

     CHECK POINT  END OF SOLVER       

       ELAPSED USER TIME (SEC)      =  0.10000    
       ELAPSED SYSTEM TIME (SEC)    =   0.0000    
       ELAPSED TOTAL CPU TIME (SEC) =  0.10000    
       ELAPSED WALLCLOCK TIME (SEC) =          1

               CONVERGENCE CHECKS FOR EQUILIBRIUM ITERATION     1


 AVERAGE FORCE                      0.710       TIME AVG. FORCE       0.103    
 LARGEST RESIDUAL FORCE              2.74       AT NODE         63   DOF  1
   INSTANCE: PART-622-1                                                                      
 LARGEST INCREMENT OF DISP.        -9.333E-04   AT NODE        533   DOF  3
   INSTANCE: PART-622-1                                                                      
 LARGEST CORRECTION TO DISP.       -1.728E-04   AT NODE        331   DOF  3
   INSTANCE: PART-622-1                                                                      
          FORCE     EQUILIBRIUM NOT ACHIEVED WITHIN TOLERANCE.

 AVERAGE MOMENT                     1.070E-03   TIME AVG. MOMENT      1.686E-04
 LARGEST RESIDUAL MOMENT            5.640E-04   AT NODE         37   DOF  5
   INSTANCE: PART-622-1                                                                      
 LARGEST INCREMENT OF ROTATION     -4.850E-02   AT NODE         38   DOF  5
   INSTANCE: PART-622-1                                                                      
 LARGEST CORRECTION TO ROTATION     5.979E-03   AT NODE          3   DOF  5
   INSTANCE: PART-622-1                                                                      
          MOMENT    EQUILIBRIUM NOT ACHIEVED WITHIN TOLERANCE.

  NUMBER OF EQUATIONS =     29640     NUMBER OF RHS =    1
  NUMBER OF FLOATING PT. OPERATIONS =  7.47E+08

  USING THE DIRECT SOLVER WITH   2 PROCESSORS

     CHECK POINT   START OF SOLVER    

     CHECK POINT  END OF SOLVER       

       ELAPSED USER TIME (SEC)      =  0.10000    
       ELAPSED SYSTEM TIME (SEC)    =   0.0000    
       ELAPSED TOTAL CPU TIME (SEC) =  0.10000    
       ELAPSED WALLCLOCK TIME (SEC) =          0

               CONVERGENCE CHECKS FOR EQUILIBRIUM ITERATION     2


 AVERAGE FORCE                      0.693       TIME AVG. FORCE       0.102    
 LARGEST RESIDUAL FORCE            -2.389E-02   AT NODE        413   DOF  2
   INSTANCE: PART-622-1                                                                      
 LARGEST INCREMENT OF DISP.        -9.306E-04   AT NODE        533   DOF  3
   INSTANCE: PART-622-1                                                                      
 LARGEST CORRECTION TO DISP.        9.958E-06   AT NODE        414   DOF  3
   INSTANCE: PART-622-1                                                                      
          FORCE     EQUILIBRIUM NOT ACHIEVED WITHIN TOLERANCE.

 AVERAGE MOMENT                     1.074E-03   TIME AVG. MOMENT      1.688E-04
 LARGEST RESIDUAL MOMENT           -2.618E-06   AT NODE        413   DOF  4
   INSTANCE: PART-622-1                                                                      
 LARGEST INCREMENT OF ROTATION     -4.883E-02   AT NODE         38   DOF  5
   INSTANCE: PART-622-1                                                                      
 LARGEST CORRECTION TO ROTATION     5.288E-04   AT NODE        413   DOF  4
   INSTANCE: PART-622-1                                                                      
          MOMENT    EQUILIBRIUM NOT ACHIEVED WITHIN TOLERANCE.

  NUMBER OF EQUATIONS =     29640     NUMBER OF RHS =    1
  NUMBER OF FLOATING PT. OPERATIONS =  7.47E+08

  USING THE DIRECT SOLVER WITH   2 PROCESSORS

     CHECK POINT   START OF SOLVER    

     CHECK POINT  END OF SOLVER       

       ELAPSED USER TIME (SEC)      =  0.20000    
       ELAPSED SYSTEM TIME (SEC)    =   0.0000    
       ELAPSED TOTAL CPU TIME (SEC) =  0.20000    
       ELAPSED WALLCLOCK TIME (SEC) =          0

               CONVERGENCE CHECKS FOR EQUILIBRIUM ITERATION     3


 AVERAGE FORCE                      0.693       TIME AVG. FORCE       0.102    
 LARGEST RESIDUAL FORCE             3.764E-03   AT NODE        332   DOF  2
   INSTANCE: PART-622-1                                                                      
 LARGEST INCREMENT OF DISP.        -9.331E-04   AT NODE        533   DOF  3
   INSTANCE: PART-622-1                                                                      
 LARGEST CORRECTION TO DISP.        6.877E-06   AT NODE        330   DOF  3
   INSTANCE: PART-622-1                                                                      
          FORCE     EQUILIBRIUM NOT ACHIEVED WITHIN TOLERANCE.

 AVERAGE MOMENT                     1.074E-03   TIME AVG. MOMENT      1.689E-04
 LARGEST RESIDUAL MOMENT            4.266E-07   AT NODE        332   DOF  4
   INSTANCE: PART-622-1                                                                      
 LARGEST INCREMENT OF ROTATION     -4.889E-02   AT NODE         38   DOF  5
   INSTANCE: PART-622-1                                                                      
 LARGEST CORRECTION TO ROTATION    -2.086E-04   AT NODE        332   DOF  4
   INSTANCE: PART-622-1                                                                      
          THE MOMENT    EQUILIBRIUM EQUATIONS HAVE CONVERGED

  NUMBER OF EQUATIONS =     29640     NUMBER OF RHS =    1
  NUMBER OF FLOATING PT. OPERATIONS =  7.47E+08

  USING THE DIRECT SOLVER WITH   2 PROCESSORS

     CHECK POINT   START OF SOLVER    

     CHECK POINT  END OF SOLVER       

       ELAPSED USER TIME (SEC)      =  0.20000    
       ELAPSED SYSTEM TIME (SEC)    =   0.0000    
       ELAPSED TOTAL CPU TIME (SEC) =  0.20000    
       ELAPSED WALLCLOCK TIME (SEC) =          0

               CONVERGENCE CHECKS FOR EQUILIBRIUM ITERATION     4


 AVERAGE FORCE                      0.693       TIME AVG. FORCE       0.102    
 LARGEST RESIDUAL FORCE             2.254E-06   AT NODE        728   DOF  3
   INSTANCE: PART-622-1                                                                      
 LARGEST INCREMENT OF DISP.        -9.331E-04   AT NODE        533   DOF  3
   INSTANCE: PART-622-1                                                                      
 LARGEST CORRECTION TO DISP.        7.535E-09   AT NODE        335   DOF  3
   INSTANCE: PART-622-1                                                                      
          THE FORCE     EQUILIBRIUM EQUATIONS HAVE CONVERGED

 AVERAGE MOMENT                     1.074E-03   TIME AVG. MOMENT      1.689E-04
 LARGEST RESIDUAL MOMENT           -3.353E-09   AT NODE        731   DOF  4
   INSTANCE: PART-622-1                                                                      
 LARGEST INCREMENT OF ROTATION     -4.889E-02   AT NODE         38   DOF  5
   INSTANCE: PART-622-1                                                                      
 LARGEST CORRECTION TO ROTATION    -4.447E-07   AT NODE        143   DOF  6
   INSTANCE: PART-622-1                                                                      
          THE MOMENT    EQUILIBRIUM EQUATIONS HAVE CONVERGED
          TIME INCREMENT MAY NOW INCREASE TO    0.100    

 ITERATION SUMMARY FOR THE INCREMENT:   4 TOTAL ITERATIONS, OF WHICH
   0 ARE SEVERE DISCONTINUITY ITERATIONS AND  4 ARE EQUILIBRIUM ITERATIONS.

 TIME INCREMENT COMPLETED  9.853E-02,  FRACTION OF STEP COMPLETED  0.295    
 STEP TIME COMPLETED       0.295    ,  TOTAL TIME COMPLETED        0.295    


  INCREMENT    20 STARTS. ATTEMPT NUMBER  1, TIME INCREMENT  0.100    

  NUMBER OF EQUATIONS =     29640     NUMBER OF RHS =    1
  NUMBER OF FLOATING PT. OPERATIONS =  7.47E+08

  USING THE DIRECT SOLVER WITH   2 PROCESSORS

     CHECK POINT   START OF SOLVER    

     CHECK POINT  END OF SOLVER       

       ELAPSED USER TIME (SEC)      =  0.20000    
       ELAPSED SYSTEM TIME (SEC)    =   0.0000    
       ELAPSED TOTAL CPU TIME (SEC) =  0.20000    
       ELAPSED WALLCLOCK TIME (SEC) =          0

               CONVERGENCE CHECKS FOR EQUILIBRIUM ITERATION     1


 AVERAGE FORCE                      0.964       TIME AVG. FORCE       0.145    
 LARGEST RESIDUAL FORCE              1.76       AT NODE         63   DOF  1
   INSTANCE: PART-622-1                                                                      
 LARGEST INCREMENT OF DISP.        -8.241E-04   AT NODE        536   DOF  3
   INSTANCE: PART-622-1                                                                      
 LARGEST CORRECTION TO DISP.       -1.379E-04   AT NODE        315   DOF  3
   INSTANCE: PART-622-1                                                                      
          FORCE     EQUILIBRIUM NOT ACHIEVED WITHIN TOLERANCE.

 AVERAGE MOMENT                     1.464E-03   TIME AVG. MOMENT      2.336E-04
[...]

  NUMBER OF EQUATIONS =     29640     NUMBER OF RHS =    1
  NUMBER OF FLOATING PT. OPERATIONS =  7.47E+08

  USING THE DIRECT SOLVER WITH   2 PROCESSORS

     CHECK POINT   START OF SOLVER    

     CHECK POINT  END OF SOLVER       

       ELAPSED USER TIME (SEC)      =  0.10000    
       ELAPSED SYSTEM TIME (SEC)    =   0.0000    
       ELAPSED TOTAL CPU TIME (SEC) =  0.10000    
       ELAPSED WALLCLOCK TIME (SEC) =          0

               CONVERGENCE CHECKS FOR EQUILIBRIUM ITERATION     1


 AVERAGE FORCE                       6.51       TIME AVG. FORCE        4.02    
 LARGEST RESIDUAL FORCE            -1.074E-02   AT NODE        790   DOF  3
   INSTANCE: PART-622-1                                                                      
 LARGEST INCREMENT OF DISP.        -2.591E-05   AT NODE        517   DOF  3
   INSTANCE: PART-622-1                                                                      
 LARGEST CORRECTION TO DISP.       -2.591E-05   AT NODE        517   DOF  3
   INSTANCE: PART-622-1                                                                      
          DISP.    CORRECTION TOO LARGE COMPARED TO DISP.    INCREMENT

 AVERAGE MOMENT                     2.216E-02   TIME AVG. MOMENT      8.655E-03
 LARGEST RESIDUAL MOMENT           -2.472E-05   AT NODE        785   DOF  4
   INSTANCE: PART-622-1                                                                      
 LARGEST INCREMENT OF ROTATION      2.445E-03   AT NODE         83   DOF  6
   INSTANCE: PART-622-1                                                                      
 LARGEST CORRECTION TO ROTATION     2.445E-03   AT NODE         83   DOF  6
   INSTANCE: PART-622-1                                                                      
          ROTATION CORRECTION TOO LARGE COMPARED TO ROTATION INCREMENT

  NUMBER OF EQUATIONS =     29640     NUMBER OF RHS =    1
  NUMBER OF FLOATING PT. OPERATIONS =  7.47E+08

  USING THE DIRECT SOLVER WITH   2 PROCESSORS

     CHECK POINT   START OF SOLVER    

     CHECK POINT  END OF SOLVER       

       ELAPSED USER TIME (SEC)      =  0.20000    
       ELAPSED SYSTEM TIME (SEC)    =   0.0000    
       ELAPSED TOTAL CPU TIME (SEC) =  0.20000    
       ELAPSED WALLCLOCK TIME (SEC) =          0

               CONVERGENCE CHECKS FOR EQUILIBRIUM ITERATION     2


 AVERAGE FORCE                       6.51       TIME AVG. FORCE        4.02    
 LARGEST RESIDUAL FORCE            -2.604E-03   AT NODE        789   DOF  3
   INSTANCE: PART-622-1                                                                      
 LARGEST INCREMENT OF DISP.        -2.663E-05   AT NODE        516   DOF  3
   INSTANCE: PART-622-1                                                                      
 LARGEST CORRECTION TO DISP.        8.478E-07   AT NODE       2626   DOF  3
   INSTANCE: PART-622-1                                                                      
 ESTIMATE OF DISP.    CORRECTION    2.056E-07
 FORCE     EQUILIB. ACCEPTED BASED ON SMALL RESIDUAL AND ESTIMATED CORRECTION

 AVERAGE MOMENT                     2.217E-02   TIME AVG. MOMENT      8.655E-03
 LARGEST RESIDUAL MOMENT            1.545E-05   AT NODE        790   DOF  6
   INSTANCE: PART-622-1                                                                      
 LARGEST INCREMENT OF ROTATION      2.969E-03   AT NODE         83   DOF  6
   INSTANCE: PART-622-1                                                                      
 LARGEST CORRECTION TO ROTATION    -1.829E-03   AT NODE         82   DOF  4
   INSTANCE: PART-622-1                                                                      
          ROTATION CORRECTION TOO LARGE COMPARED TO ROTATION INCREMENT

  NUMBER OF EQUATIONS =     29640     NUMBER OF RHS =    1
  NUMBER OF FLOATING PT. OPERATIONS =  7.47E+08

  USING THE DIRECT SOLVER WITH   2 PROCESSORS

     CHECK POINT   START OF SOLVER    

     CHECK POINT  END OF SOLVER       

       ELAPSED USER TIME (SEC)      =  0.20000    
       ELAPSED SYSTEM TIME (SEC)    =  0.10000    
       ELAPSED TOTAL CPU TIME (SEC) =  0.30000    
       ELAPSED WALLCLOCK TIME (SEC) =          0

               CONVERGENCE CHECKS FOR EQUILIBRIUM ITERATION     3


 AVERAGE FORCE                       6.51       TIME AVG. FORCE        4.02    
 LARGEST RESIDUAL FORCE             4.423E-03   AT NODE        789   DOF  3
   INSTANCE: PART-622-1                                                                      
 LARGEST INCREMENT OF DISP.        -2.671E-05   AT NODE        516   DOF  3
   INSTANCE: PART-622-1                                                                      
 LARGEST CORRECTION TO DISP.       -4.445E-07   AT NODE        782   DOF  3
   INSTANCE: PART-622-1                                                                      
          DISP.    CORRECTION TOO LARGE COMPARED TO DISP.    INCREMENT

 AVERAGE MOMENT                     2.216E-02   TIME AVG. MOMENT      8.655E-03
 LARGEST RESIDUAL MOMENT            2.451E-05   AT NODE        785   DOF  4
   INSTANCE: PART-622-1                                                                      
 LARGEST INCREMENT OF ROTATION     -1.796E-03   AT NODE         82   DOF  4
   INSTANCE: PART-622-1                                                                      
 LARGEST CORRECTION TO ROTATION    -2.431E-03   AT NODE         83   DOF  6
   INSTANCE: PART-622-1                                                                      
          ROTATION CORRECTION TOO LARGE COMPARED TO ROTATION INCREMENT

  NUMBER OF EQUATIONS =     29640     NUMBER OF RHS =    1
  NUMBER OF FLOATING PT. OPERATIONS =  7.47E+08

  USING THE DIRECT SOLVER WITH   2 PROCESSORS

     CHECK POINT   START OF SOLVER    

     CHECK POINT  END OF SOLVER       

       ELAPSED USER TIME (SEC)      =  0.10000    
       ELAPSED SYSTEM TIME (SEC)    =   0.0000    
       ELAPSED TOTAL CPU TIME (SEC) =  0.10000    
       ELAPSED WALLCLOCK TIME (SEC) =          0

               CONVERGENCE CHECKS FOR EQUILIBRIUM ITERATION     4


 AVERAGE FORCE                       6.51       TIME AVG. FORCE        4.02    
 LARGEST RESIDUAL FORCE             1.409E-03   AT NODE         83   DOF  1
   INSTANCE: PART-622-1                                                                      
 LARGEST INCREMENT OF DISP.        -2.668E-05   AT NODE        516   DOF  3
   INSTANCE: PART-622-1                                                                      
 LARGEST CORRECTION TO DISP.       -2.456E-07   AT NODE         82   DOF  3
   INSTANCE: PART-622-1                                                                      
          THE FORCE     EQUILIBRIUM EQUATIONS HAVE CONVERGED

 AVERAGE MOMENT                     2.216E-02   TIME AVG. MOMENT      8.655E-03
 LARGEST RESIDUAL MOMENT           -1.516E-05   AT NODE        790   DOF  6
   INSTANCE: PART-622-1                                                                      
 LARGEST INCREMENT OF ROTATION      6.377E-04   AT NODE       2924   DOF  5
   INSTANCE: PART-622-1                                                                      
 LARGEST CORRECTION TO ROTATION     1.805E-03   AT NODE         82   DOF  4
   INSTANCE: PART-622-1                                                                      
          ROTATION CORRECTION TOO LARGE COMPARED TO ROTATION INCREMENT

  NUMBER OF EQUATIONS =     29640     NUMBER OF RHS =    1
  NUMBER OF FLOATING PT. OPERATIONS =  7.47E+08

  USING THE DIRECT SOLVER WITH   2 PROCESSORS

     CHECK POINT   START OF SOLVER    

     CHECK POINT  END OF SOLVER       

       ELAPSED USER TIME (SEC)      =  0.20000    
       ELAPSED SYSTEM TIME (SEC)    =   0.0000    
       ELAPSED TOTAL CPU TIME (SEC) =  0.20000    
       ELAPSED WALLCLOCK TIME (SEC) =          0

               CONVERGENCE CHECKS FOR EQUILIBRIUM ITERATION     5


 AVERAGE FORCE                       6.51       TIME AVG. FORCE        4.02    
 LARGEST RESIDUAL FORCE             5.586E-03   AT NODE        789   DOF  3
   INSTANCE: PART-622-1                                                                      
 LARGEST INCREMENT OF DISP.        -2.668E-05   AT NODE        516   DOF  3
   INSTANCE: PART-622-1                                                                      
 LARGEST CORRECTION TO DISP.        4.316E-07   AT NODE        782   DOF  3
   INSTANCE: PART-622-1                                                                      
          DISP.    CORRECTION TOO LARGE COMPARED TO DISP.    INCREMENT

 AVERAGE MOMENT                     2.216E-02   TIME AVG. MOMENT      8.655E-03
 LARGEST RESIDUAL MOMENT           -2.430E-05   AT NODE        785   DOF  4
   INSTANCE: PART-622-1                                                                      
 LARGEST INCREMENT OF ROTATION      2.441E-03   AT NODE         83   DOF  6
   INSTANCE: PART-622-1                                                                      
 LARGEST CORRECTION TO ROTATION     2.417E-03   AT NODE         83   DOF  6
   INSTANCE: PART-622-1                                                                      
          ROTATION CORRECTION TOO LARGE COMPARED TO ROTATION INCREMENT
 

 ***NOTE: THE SOLUTION APPEARS TO BE DIVERGING. CONVERGENCE IS JUDGED UNLIKELY.


  INCREMENT    33 STARTS. ATTEMPT NUMBER  5, TIME INCREMENT  4.228E-05

  NUMBER OF EQUATIONS =     29640     NUMBER OF RHS =    1
  NUMBER OF FLOATING PT. OPERATIONS =  7.47E+08

  USING THE DIRECT SOLVER WITH   2 PROCESSORS

     CHECK POINT   START OF SOLVER    

     CHECK POINT  END OF SOLVER       

       ELAPSED USER TIME (SEC)      =  0.20000    
       ELAPSED SYSTEM TIME (SEC)    =   0.0000    
       ELAPSED TOTAL CPU TIME (SEC) =  0.20000    
       ELAPSED WALLCLOCK TIME (SEC) =          1

               CONVERGENCE CHECKS FOR EQUILIBRIUM ITERATION     1


 AVERAGE FORCE                       6.51       TIME AVG. FORCE        4.02    
 LARGEST RESIDUAL FORCE             5.468E-03   AT NODE        789   DOF  3
   INSTANCE: PART-622-1                                                                      
 LARGEST INCREMENT OF DISP.        -6.499E-06   AT NODE        517   DOF  3
   INSTANCE: PART-622-1                                                                      
 LARGEST CORRECTION TO DISP.       -6.499E-06   AT NODE        517   DOF  3
   INSTANCE: PART-622-1                                                                      
          DISP.    CORRECTION TOO LARGE COMPARED TO DISP.    INCREMENT

 AVERAGE MOMENT                     2.215E-02   TIME AVG. MOMENT      8.655E-03
 LARGEST RESIDUAL MOMENT           -2.478E-05   AT NODE        785   DOF  4
   INSTANCE: PART-622-1                                                                      
 LARGEST INCREMENT OF ROTATION      2.466E-03   AT NODE         83   DOF  6
   INSTANCE: PART-622-1                                                                      
 LARGEST CORRECTION TO ROTATION     2.466E-03   AT NODE         83   DOF  6
   INSTANCE: PART-622-1                                                                      
          ROTATION CORRECTION TOO LARGE COMPARED TO ROTATION INCREMENT

  NUMBER OF EQUATIONS =     29640     NUMBER OF RHS =    1
  NUMBER OF FLOATING PT. OPERATIONS =  7.47E+08

  USING THE DIRECT SOLVER WITH   2 PROCESSORS

     CHECK POINT   START OF SOLVER    

     CHECK POINT  END OF SOLVER       

       ELAPSED USER TIME (SEC)      =  0.20000    
       ELAPSED SYSTEM TIME (SEC)    =   0.0000    
       ELAPSED TOTAL CPU TIME (SEC) =  0.20000    
       ELAPSED WALLCLOCK TIME (SEC) =          0

               CONVERGENCE CHECKS FOR EQUILIBRIUM ITERATION     2


 AVERAGE FORCE                       6.51       TIME AVG. FORCE        4.02    
 LARGEST RESIDUAL FORCE             2.670E-03   AT NODE        790   DOF  3
   INSTANCE: PART-622-1                                                                      
 LARGEST INCREMENT OF DISP.        -6.774E-06   AT NODE        515   DOF  3
   INSTANCE: PART-622-1                                                                      
 LARGEST CORRECTION TO DISP.        3.320E-07   AT NODE       2626   DOF  3
   INSTANCE: PART-622-1                                                                      
          DISP.    CORRECTION TOO LARGE COMPARED TO DISP.    INCREMENT

 AVERAGE MOMENT                     2.215E-02   TIME AVG. MOMENT      8.655E-03
 LARGEST RESIDUAL MOMENT            1.574E-05   AT NODE        790   DOF  6
   INSTANCE: PART-622-1                                                                      
 LARGEST INCREMENT OF ROTATION      2.964E-03   AT NODE         83   DOF  6
   INSTANCE: PART-622-1                                                                      
 LARGEST CORRECTION TO ROTATION    -1.857E-03   AT NODE         82   DOF  4
   INSTANCE: PART-622-1                                                                      
          ROTATION CORRECTION TOO LARGE COMPARED TO ROTATION INCREMENT

  NUMBER OF EQUATIONS =     29640     NUMBER OF RHS =    1
  NUMBER OF FLOATING PT. OPERATIONS =  7.47E+08

  USING THE DIRECT SOLVER WITH   2 PROCESSORS

     CHECK POINT   START OF SOLVER    

     CHECK POINT  END OF SOLVER       

       ELAPSED USER TIME (SEC)      =  0.10000    
       ELAPSED SYSTEM TIME (SEC)    =   0.0000    
       ELAPSED TOTAL CPU TIME (SEC) =  0.10000    
       ELAPSED WALLCLOCK TIME (SEC) =          0

               CONVERGENCE CHECKS FOR EQUILIBRIUM ITERATION     3


 AVERAGE FORCE                       6.51       TIME AVG. FORCE        4.02    
 LARGEST RESIDUAL FORCE             4.420E-03   AT NODE        789   DOF  3
   INSTANCE: PART-622-1                                                                      
 LARGEST INCREMENT OF DISP.        -6.703E-06   AT NODE        516   DOF  3
   INSTANCE: PART-622-1                                                                      
 LARGEST CORRECTION TO DISP.       -4.260E-07   AT NODE        782   DOF  3
   INSTANCE: PART-622-1                                                                      
          DISP.    CORRECTION TOO LARGE COMPARED TO DISP.    INCREMENT

 AVERAGE MOMENT                     2.215E-02   TIME AVG. MOMENT      8.655E-03
 LARGEST RESIDUAL MOMENT            2.452E-05   AT NODE        785   DOF  4
   INSTANCE: PART-622-1                                                                      
 LARGEST INCREMENT OF ROTATION     -1.823E-03   AT NODE         82   DOF  4
   INSTANCE: PART-622-1                                                                      
 LARGEST CORRECTION TO ROTATION    -2.436E-03   AT NODE         83   DOF  6
   INSTANCE: PART-622-1                                                                      
          ROTATION CORRECTION TOO LARGE COMPARED TO ROTATION INCREMENT

  NUMBER OF EQUATIONS =     29640     NUMBER OF RHS =    1
  NUMBER OF FLOATING PT. OPERATIONS =  7.47E+08

  USING THE DIRECT SOLVER WITH   2 PROCESSORS

     CHECK POINT   START OF SOLVER    

     CHECK POINT  END OF SOLVER       

       ELAPSED USER TIME (SEC)      =  0.20000    
       ELAPSED SYSTEM TIME (SEC)    =   0.0000    
       ELAPSED TOTAL CPU TIME (SEC) =  0.20000    
       ELAPSED WALLCLOCK TIME (SEC) =          0

               CONVERGENCE CHECKS FOR EQUILIBRIUM ITERATION     4


 AVERAGE FORCE                       6.51       TIME AVG. FORCE        4.02    
 LARGEST RESIDUAL FORCE             1.409E-03   AT NODE         83   DOF  1
   INSTANCE: PART-622-1                                                                      
 LARGEST INCREMENT OF DISP.        -6.779E-06   AT NODE        515   DOF  3
   INSTANCE: PART-622-1                                                                      
 LARGEST CORRECTION TO DISP.       -2.441E-07   AT NODE         82   DOF  3
   INSTANCE: PART-622-1                                                                      
          DISP.    CORRECTION TOO LARGE COMPARED TO DISP.    INCREMENT

 AVERAGE MOMENT                     2.215E-02   TIME AVG. MOMENT      8.655E-03
 LARGEST RESIDUAL MOMENT           -1.528E-05   AT NODE        790   DOF  6
   INSTANCE: PART-622-1                                                                      
 LARGEST INCREMENT OF ROTATION      1.548E-04   AT NODE        173   DOF  5
   INSTANCE: PART-622-1                                                                      
 LARGEST CORRECTION TO ROTATION     1.820E-03   AT NODE         82   DOF  4
   INSTANCE: PART-622-1                                                                      
          ROTATION CORRECTION TOO LARGE COMPARED TO ROTATION INCREMENT

  NUMBER OF EQUATIONS =     29640     NUMBER OF RHS =    1
  NUMBER OF FLOATING PT. OPERATIONS =  7.47E+08

  USING THE DIRECT SOLVER WITH   2 PROCESSORS

     CHECK POINT   START OF SOLVER    

     CHECK POINT  END OF SOLVER       

       ELAPSED USER TIME (SEC)      =  0.20000    
       ELAPSED SYSTEM TIME (SEC)    =   0.0000    
       ELAPSED TOTAL CPU TIME (SEC) =  0.20000    
       ELAPSED WALLCLOCK TIME (SEC) =          0

               CONVERGENCE CHECKS FOR EQUILIBRIUM ITERATION     5


 AVERAGE FORCE                       6.51       TIME AVG. FORCE        4.02    
 LARGEST RESIDUAL FORCE             5.532E-03   AT NODE        789   DOF  3
   INSTANCE: PART-622-1                                                                      
 LARGEST INCREMENT OF DISP.        -6.755E-06   AT NODE        516   DOF  3
   INSTANCE: PART-622-1                                                                      
 LARGEST CORRECTION TO DISP.        4.259E-07   AT NODE        782   DOF  3
   INSTANCE: PART-622-1                                                                      
          DISP.    CORRECTION TOO LARGE COMPARED TO DISP.    INCREMENT

 AVERAGE MOMENT                     2.215E-02   TIME AVG. MOMENT      8.655E-03
 LARGEST RESIDUAL MOMENT           -2.413E-05   AT NODE        785   DOF  4
   INSTANCE: PART-622-1                                                                      
 LARGEST INCREMENT OF ROTATION      2.438E-03   AT NODE         83   DOF  6
   INSTANCE: PART-622-1                                                                      
 LARGEST CORRECTION TO ROTATION     2.402E-03   AT NODE         83   DOF  6
   INSTANCE: PART-622-1                                                                      
          ROTATION CORRECTION TOO LARGE COMPARED TO ROTATION INCREMENT
 

 ***NOTE: THE SOLUTION APPEARS TO BE DIVERGING. CONVERGENCE IS JUDGED UNLIKELY.
 

 ***ERROR: TOO MANY ATTEMPTS MADE FOR THIS INCREMENT

 ***ERROR: THE ANALYSIS HAS BEEN TERMINATED DUE TO PREVIOUS ERRORS. ALL OUTPUT 
           REQUESTS HAVE BEEN WRITTEN FOR THE LAST CONVERGED INCREMENT.



     ANALYSIS SUMMARY:
     TOTAL OF         94  INCREMENTS
                      12  CUTBACKS IN AUTOMATIC INCREMENTATION
                     291  ITERATIONS INCLUDING CONTACT ITERATIONS IF PRESENT
                     291  PASSES THROUGH THE EQUATION SOLVER OF WHICH 
                     291  INVOLVE MATRIX DECOMPOSITION, INCLUDING
                       0  DECOMPOSITION(S) OF THE MASS MATRIX
                       1  REORDERING OF EQUATIONS TO MINIMIZE WAVEFRONT
                       0  ADDITIONAL RESIDUAL EVALUATIONS FOR LINE SEARCHES
                       0  ADDITIONAL OPERATOR EVALUATIONS FOR LINE SEARCHES
                       0  WARNING MESSAGES DURING USER INPUT PROCESSING
                       7  WARNING MESSAGES DURING ANALYSIS
                       0  ANALYSIS WARNINGS ARE NUMERICAL PROBLEM MESSAGES
                       6  ANALYSIS WARNINGS ARE NEGATIVE EIGENVALUE MESSAGES
                       2  ERROR MESSAGES



     JOB TIME SUMMARY
       USER TIME (SEC)      =   162.60    
       SYSTEM TIME (SEC)    =   8.4000    
       TOTAL CPU TIME (SEC) =   171.00    
       WALLCLOCK TIME (SEC) =        100
