*Heading
** Job name: chkflap Model name: Model-2
** Generated by: Abaqus/CAE 2021
*Preprint, echo=NO, model=NO, history=NO, contact=NO
**
** PARTS
**
*Part, name=Part-622
*End Part
**  
**
** ASSEMBLY
**
*Assembly, name=Assembly
**  
*Instance, name=Part-622-1, part=Part-622
*Node
      1, -0.100000001,           0., -0.239999995
      2, -0.0900000036,           0.,        -0.25
      3, -0.0900000036,  0.129673332,        -0.25
      4, -0.100000001,  0.133000001, -0.239999995
      5, -0.100000001,  0.133000001, -0.00999999978
      6, -0.0900000036,  0.129673332,           0.
      7, -0.0900000036,           0.,           0.
      8, -0.100000001,           0., -0.00999999978
      9,  0.200000003,           0., -0.00999999978
     10,  0.189999998,           0.,           0.
     11,  0.189999998, 0.0365266651,           0.
     12,  0.200000003, 0.0331999995, -0.00999999978
     13,  0.189999998,           0.,        -0.25
     14,  0.200000003,           0., -0.239999995
     15,  0.200000003, 0.0331999995, -0.239999995
     16,  0.189999998, 0.0365266651,        -0.25
     17, -0.0995105654,           0., -0.243090168
     18, -0.0980901718,           0., -0.245877847
     19, -0.095877856,           0., -0.248090163
     20, -0.0930901691,           0., -0.249510571
** ... 4920 like lines cut
*Element, type=S4R
 1,   1,  17, 657,  58
 2,  17,  18, 658, 657
 3,  18,  19, 659, 658
 4,  19,  20, 660, 659
 5,  20,   2,  21, 660
 6,  58, 657, 661,  57
 7, 657, 658, 662, 661
 8, 658, 659, 663, 662
 9, 659, 660, 664, 663
10, 660,  21,  22, 664
11,  57, 661, 665,  56
12, 661, 662, 666, 665
13, 662, 663, 667, 666
14, 663, 664, 668, 667
15, 664,  22,  23, 668
16,  56, 665, 669,  55
17, 665, 666, 670, 669
18, 666, 667, 671, 670
19, 667, 668, 672, 671
20, 668,  23,  24, 672
** ... 4660 like lines cut
** Region: (Connector-1: Generated From Layup)
*Elset, elset=Connector-1, generate
   1,  360,    1
** Section: Connector-1
*Shell Section, elset=Connector-1, composite, layup=Connector
4e-05, 3, Thin-Ply, 0., Ply-1
4e-05, 3, Thin-Ply, 0., Ply-2
4e-05, 3, Thin-Ply, 0., Ply-3
4e-05, 3, Thin-Ply, 0., Ply-4
*Orientation, name=Ori-2
1., 0., 0., 0., 1., 0.
2, 0.
** Region: (Symm-1: Generated From Layup)
*Elset, elset=Symm-1
  361,  362,  363,  364,  365,  366,  367,  368,  369,  370,  371,  372,  373,  374,  375,  376
  377,  378,  379,  380,  381,  382,  383,  384,  385,  386,  387,  388,  389,  390,  391,  392
  393,  394,  395,  396,  397,  398,  399,  400,  401,  402,  403,  404,  405,  406,  407,  408
  409,  410,  411,  412,  413,  414,  415,  416,  417,  418,  419,  420,  421,  422,  423,  424
  425,  426,  427,  428,  429,  430,  431,  432,  433,  434,  435,  436,  437,  438,  439,  440
  441,  442,  443,  444,  445,  446,  447,  448,  449,  450,  451,  452,  453,  454,  455,  456
  457,  458,  459,  460,  461,  462,  463,  464,  465,  466,  467,  468,  469,  470,  471,  472
  473,  474,  475,  476,  477,  478,  479,  480,  481,  482,  483,  484,  485,  486,  487,  488
  489,  490,  491,  492,  493,  494,  495,  496,  497,  498,  499,  500,  501,  502,  503,  504
  505,  506,  507,  508,  509,  510,  511,  512,  513,  514,  515,  516,  517,  518,  519,  520
  521,  522,  523,  524,  525,  526,  527,  528,  529,  530,  531,  532,  533,  534,  535,  536
  537,  538,  539,  540,  541,  542,  543,  544,  545,  546,  547,  548,  549,  550,  551,  552
  553,  554,  555,  556,  557,  558,  559,  560,  561,  562,  563,  564,  565,  566,  567,  568
  569,  570,  571,  572,  573,  574,  575,  576,  577,  578,  579,  580,  581,  582,  583,  584
  585,  586,  587,  588,  589,  590,  591,  592,  593,  594,  595,  596,  597,  598,  599,  600
  601,  602,  603,  604,  605,  606,  607,  608,  609,  610,  611,  612,  613,  614,  615,  616
  617,  618,  619,  620,  621,  622,  623,  624,  625,  626,  627,  628,  629,  630,  631,  632
  633,  634,  635,  636,  637,  638,  639,  640,  641,  642,  643,  644,  645,  646,  647,  648
  649,  650,  651,  652,  653,  654,  655,  656,  657,  658,  659,  660,  661,  662,  663,  664
  665,  666,  667,  668,  669,  670,  671,  672,  673,  674,  675,  676,  677,  678,  679,  680
** ... 84 like lines cut
** Section: Symm-1
*Shell Section, elset=Symm-1, composite, orientation=Ori-2, layup=Symm
0.000131, 3, Composite, 0., Ply-1
0.000131, 3, Composite, 0., Ply-2
0.000131, 3, Composite, 0., Ply-3
0.000131, 3, Composite, 0., Ply-4
0.000131, 3, Composite, 0., Ply-1-Copy1
0.000131, 3, Composite, 0., Ply-2-Copy1
0.000131, 3, Composite, 0., Ply-3-Copy1
0.000131, 3, Composite, 0., Ply-4-Copy1
0.000131, 3, Composite, 0., Ply-1-Copy2
0.000131, 3, Composite, 0., Ply-2-Copy2
0.000131, 3, Composite, 0., Ply-3-Copy2
0.000131, 3, Composite, 0., Ply-4-Copy2
0.000131, 3, Composite, 0., Ply-1-Copy1-Copy1
0.000131, 3, Composite, 0., Ply-2-Copy1-Copy1
0.000131, 3, Composite, 0., Ply-3-Copy1-Copy1
0.000131, 3, Composite, 0., Ply-4-Copy1-Copy1
** Region: (Unsymm-1: Generated From Layup)
*Elset, elset=Unsymm-1, generate
 1189,  3852,     1
** Section: Unsymm-1
*Shell Section, elset=Unsymm-1, composite, layup=Unsymm
0.000131, 3, Composite, 90., Ply-1
0.000131, 3, Composite, 90., Ply-2
0.000131, 3, Composite, 0., Ply-3
0.000131, 3, Composite, 0., Ply-4
*End Instance
**  
*Nset, nset=Allgeo, instance=Part-622-1, generate
    1,  4940,     1
*Elset, elset=Allgeo, instance=Part-622-1, generate
    1,  4680,     1
*Nset, nset="Edge Seeds-1", instance=Part-622-1
   1,   2,   3,   4,   5,   6,   7,   8,   9,  10,  11,  12,  13,  14,  15,  16
 185, 186, 187, 188, 189, 190, 191, 192, 193, 194, 195, 196, 197, 198, 199, 200
 201, 202, 203, 204, 205, 206, 207, 208, 209, 210, 211, 212, 213, 214, 215, 216
 217, 218, 219, 220, 221, 222, 223, 224, 225, 226, 227, 228, 229, 230, 231, 232
 233, 234, 235, 236, 237, 238, 239, 240, 241, 242, 243, 244, 245, 246, 247, 248
 249, 250, 251, 252, 253, 254, 255, 256, 257, 258, 259, 260, 261, 262, 263, 264
 265, 266, 267, 268, 269, 270, 271, 272, 273, 274, 275, 276, 277, 278, 279, 280
 281, 282, 283, 284, 285, 286, 287, 288, 289, 290, 291, 292, 293, 294, 295, 296
 297, 298, 299, 300, 301, 302, 303, 304, 305, 306, 307, 308, 309, 310, 311, 312
 313, 314, 315, 316, 317, 318, 319, 320, 321, 322, 323, 324, 325, 326, 327, 328
 329, 330, 331, 332, 333, 334, 335, 336, 337, 338, 339, 340, 341, 342, 343, 344
 345, 346, 347, 348, 349, 350, 351, 352, 353, 354, 355, 356, 357, 358, 359, 360
 361, 362, 363, 364, 365, 366, 367, 368, 369, 370, 371, 372, 373, 374, 375, 376
 377, 378, 379, 380, 381, 382, 383, 384, 385, 386, 387, 388, 389, 390, 391, 392
 393, 394, 395, 396, 397, 398, 399, 400, 401, 402, 403, 404, 405, 406, 407, 408
 409, 410, 411, 412, 413, 414, 415, 416, 417, 418, 419, 420, 421, 422, 423, 424
 425, 426, 427, 428, 429, 430, 431, 432, 433, 434, 435, 436, 437, 438, 439, 440
 441, 442, 443, 444, 445, 446, 447, 448, 449, 450, 451, 452, 453, 454, 455, 456
 457, 458, 459, 460, 461, 462, 463, 464, 465, 466, 467, 468, 469, 470, 471, 472
 473, 474, 475, 476, 477, 478, 479, 480, 481, 482, 483, 484, 485, 486, 487, 488
** ... 11 like lines cut
*Elset, elset="Edge Seeds-1", instance=Part-622-1
  361,  378,  379,  396,  397,  414,  415,  432,  433,  450,  451,  468,  469,  486,  487,  504
  505,  522,  523,  540,  541,  558,  559,  576,  577,  594,  595,  612,  613,  630,  631,  648
  649,  666,  667,  684,  685,  702,  703,  720,  721,  738,  739,  756,  757,  774,  775,  792
  793,  810,  811,  828,  829,  846,  847,  864,  865,  882,  883,  900,  901,  918,  919,  936
  937,  954,  955,  972,  973,  990,  991, 1008, 1009, 1026, 1027, 1044, 1045, 1062, 1063, 1080
 1081, 1098, 1099, 1116, 1117, 1134, 1135, 1152, 1153, 1170, 1171, 1188, 1189, 1206, 1207, 1224
 1225, 1242, 1243, 1260, 1261, 1278, 1279, 1296, 1297, 1314, 1315, 1332, 1333, 1350, 1351, 1368
 1369, 1386, 1387, 1404, 1405, 1422, 1423, 1440, 1441, 1458, 1459, 1476, 1477, 1494, 1495, 1512
 1513, 1530, 1531, 1548, 1549, 1566, 1567, 1584, 1585, 1602, 1603, 1620, 1621, 1638, 1639, 1656
 1657, 1674, 1675, 1692, 1693, 1710, 1711, 1728, 1729, 1746, 1747, 1764, 1765, 1782, 1783, 1800
 1801, 1818, 1819, 1836, 1837, 1854, 1855, 1872, 1873, 1890, 1891, 1908, 1909, 1926, 1927, 1944
 1945, 1962, 1963, 1980, 1981, 1998, 1999, 2016, 2017, 2034, 2035, 2052, 2053, 2070, 2071, 2088
 2089, 2106, 2107, 2124, 2125, 2142, 2143, 2160, 2161, 2178, 2179, 2196, 2197, 2214, 2215, 2232
 2233, 2250, 2251, 2268, 2269, 2286, 2287, 2304, 2305, 2322, 2323, 2340, 2341, 2358, 2359, 2376
 2377, 2394, 2395, 2412, 2413, 2430, 2431, 2448, 2449, 2466, 2467, 2484, 2485, 2502, 2503, 2520
 2521, 2538, 2539, 2556, 2557, 2574, 2575, 2592, 2593, 2610, 2611, 2628, 2629, 2646, 2647, 2664
 2665, 2682, 2683, 2700, 2701, 2718, 2719, 2736, 2737, 2754, 2755, 2772, 2773, 2790, 2791, 2808
 2809, 2826, 2827, 2844, 2845, 2862, 2863, 2880, 2881, 2898, 2899, 2916, 2917, 2934, 2935, 2952
 2953, 2970, 2971, 2988, 2989, 3006, 3007, 3024, 3025, 3042, 3043, 3060, 3061, 3078, 3079, 3096
 3097, 3114, 3115, 3132, 3133, 3150, 3151, 3168, 3169, 3186, 3187, 3204, 3205, 3222, 3223, 3240
** ... 10 like lines cut
*Nset, nset=center1, instance=Part-622-1
 1311,
*Nset, nset=center2, instance=Part-622-1
 4558,
*Nset, nset=center3, instance=Part-622-1
 3555,
*Nset, nset=center4, instance=Part-622-1
 2314,
*End Assembly
** 
** MATERIALS
** 
*Material, name=Composite
*Elastic, type=LAMINA
 1.64e+11, 1.2e+10,     0.3, 4.6e+09, 4.6e+09, 4.6e+09
*Expansion, type=ORTHO
 -1.8e-08, 3e-05,    0.
*Material, name=Thin-Ply
*Elastic, type=LAMINA
 1.57e+11, 9.4e+09,    0.35, 5.2e+09, 5.2e+09, 5.2e+09
*Expansion, type=ORTHO
 -9e-08, 2.65e-05,       0.
** 
** BOUNDARY CONDITIONS
** 
** Name: BC-1 Type: Displacement/Rotation
*Boundary
center1, 1, 1
center1, 2, 2
center1, 3, 3
center1, 4, 4
center1, 5, 5
center1, 6, 6
** Name: BC-2 Type: Displacement/Rotation
*Boundary
center2, 1, 1
center2, 2, 2
center2, 3, 3
center2, 4, 4
center2, 5, 5
center2, 6, 6
** Name: BC-3 Type: Displacement/Rotation
*Boundary
center3, 1, 1
center3, 2, 2
center3, 3, 3
center3, 4, 4
center3, 5, 5
center3, 6, 6
** Name: BC-4 Type: Displacement/Rotation
*Boundary
center4, 1, 1
center4, 2, 2
center4, 3, 3
center4, 4, 4
center4, 5, 5
center4, 6, 6
** 
** PREDEFINED FIELDS
** 
** Name: Predefined Field-1   Type: Temperature
*Initial Conditions, type=TEMPERATURE
Allgeo, 200.
** ----------------------------------------------------------------
** 
** STEP: Step-1
** 
*Step, name=Step-1, nlgeom=YES, inc=2000
*Static, stabilize, factor=0.0002, allsdtol=0.05, continue=NO
0.0001, 1., 1e-31, 0.1
** 
** PREDEFINED FIELDS
** 
** Name: Predefined Field-1   Type: Temperature
*Temperature
Allgeo, 20.
** 
** OUTPUT REQUESTS
** 
*Restart, write, frequency=0
** 
** FIELD OUTPUT: F-Output-1
** 
*Output, field, variable=PRESELECT
** 
** HISTORY OUTPUT: H-Output-1
** 
*Output, history, variable=PRESELECT
*End Step
** ----------------------------------------------------------------
** 
** STEP: Eqm Step
** 
*Step, name="Eqm Step", nlgeom=YES, inc=2000
*Static, stabilize, factor=0.0002, allsdtol=0.05, continue=NO
1e-05, 1., 1e-31, 0.1
** 
** BOUNDARY CONDITIONS
** 
** Name: BC-1 Type: Displacement/Rotation
*Boundary, op=NEW
center1, 1, 1
center1, 2, 2
center1, 3, 3
center1, 4, 4
center1, 5, 5
center1, 6, 6
** Name: BC-2 Type: Displacement/Rotation
*Boundary, op=NEW
center2, 2, 2
center2, 3, 3
center2, 4, 4
center2, 5, 5
center2, 6, 6
** Name: BC-3 Type: Displacement/Rotation
*Boundary, op=NEW
center3, 1, 1
center3, 2, 2
center3, 6, 6
** Name: BC-4 Type: Displacement/Rotation
*Boundary, op=NEW
center4, 1, 1
center4, 2, 2
center4, 6, 6
** 
** OUTPUT REQUESTS
** 
*Restart, write, frequency=0
** 
** FIELD OUTPUT: F-Output-1
** 
*Output, field, variable=PRESELECT
** 
** HISTORY OUTPUT: H-Output-1
** 
*Output, history, variable=PRESELECT
*End Step
** ----------------------------------------------------------------
** 
** STEP: Loading
** 
*Step, name=Loading, nlgeom=YES, inc=2000
*Static, stabilize=0.2, allsdtol=0.5, continue=NO
0.01, 1., 1e-31, 1.
** 
** LOADS
** 
** Name: Load-1   Type: Concentrated force
*Cload
center3, 3, -500.
** Name: Load-2   Type: Concentrated force
*Cload
center4, 3, 500.
** 
** OUTPUT REQUESTS
** 
*Restart, write, frequency=0
** 
** FIELD OUTPUT: F-Output-1
** 
*Output, field, variable=PRESELECT
** 
** HISTORY OUTPUT: H-Output-1
** 
*Output, history, variable=PRESELECT
*End Step
** ----------------------------------------------------------------
** 
** STEP: Unloading
** 
*Step, name=Unloading, nlgeom=YES, inc=1000
*Static, stabilize, factor=0.0002, allsdtol=0.05, continue=NO
0.0001, 1., 1e-31, 0.1
** 
** LOADS
** 
** Name: Load-1   Type: Concentrated force
*Cload
center3, 3, 0.
** Name: Load-2   Type: Concentrated force
*Cload
center4, 3, 0.
** 
** OUTPUT REQUESTS
** 
*Restart, write, frequency=0
** 
** FIELD OUTPUT: F-Output-1
** 
*Output, field, variable=PRESELECT
** 
** HISTORY OUTPUT: H-Output-1
** 
*Output, history, variable=PRESELECT
*End Step
